Fire_Scenario_1_VentOption3_Run1.fds
Generated by PyroSim - Version 2018.2.0730
06-Nov-2019 13:10:33

&HEAD CHID='Fire_Scenario_1_VentOption3_Ru'/
&TIME T_END=1200.0/
&DUMP RENDER_FILE='Fire_Scenario_1_VentOption3_Ru.ge1', COLUMN_DUMP_LIMIT=.TRUE., DT_PL3D=30.0, DT_RESTART=1200.0, DT_SLCF=2.0, NFRAMES=600, WRITE_XYZ=.TRUE., PLOT3D_QUANTITY(1:4)='VOLUME FRACTION','TEMPERATURE','VELOCITY','VISIBILITY', PLOT3D_SPEC_ID(1)='CARBON MONOXIDE'/

&DEVC ID='temp_ground1_1', QUANTITY='TEMPERATURE', XYZ=7.8,-14.6,2.0/
&DEVC ID='temp_ground1_2', QUANTITY='TEMPERATURE', XYZ=8.0,-14.6,2.0/
&DEVC ID='temp_ground1_3', QUANTITY='TEMPERATURE', XYZ=8.2,-14.6,2.0/
&DEVC ID='temp_ground1_4', QUANTITY='TEMPERATURE', XYZ=8.4,-14.6,2.0/
&DEVC ID='temp_ground1_5', QUANTITY='TEMPERATURE', XYZ=8.6,-14.6,2.0/
&DEVC ID='temp_void_first1_1', QUANTITY='TEMPERATURE', XYZ=10.8,-4.8,5.0/
&DEVC ID='temp_void_first1_2', QUANTITY='TEMPERATURE', XYZ=11.2,-4.8,5.0/
&DEVC ID='temp_void_first1_3', QUANTITY='TEMPERATURE', XYZ=11.6,-4.8,5.0/
&DEVC ID='temp_void_first1_4', QUANTITY='TEMPERATURE', XYZ=12.0,-4.8,5.0/
&DEVC ID='temp_void_first1_5', QUANTITY='TEMPERATURE', XYZ=12.4,-4.8,5.0/
&DEVC ID='temp_void_first1_6', QUANTITY='TEMPERATURE', XYZ=12.8,-4.8,5.0/
&DEVC ID='temp_void_first1_7', QUANTITY='TEMPERATURE', XYZ=13.2,-4.8,5.0/
&DEVC ID='temp_void_first1_8', QUANTITY='TEMPERATURE', XYZ=13.6,-4.8,5.0/
&DEVC ID='temp_void_first2_1', QUANTITY='TEMPERATURE', XYZ=16.2,-9.0,5.0/
&DEVC ID='temp_void_first2_2', QUANTITY='TEMPERATURE', XYZ=16.2,-8.8,5.0/
&DEVC ID='temp_void_first2_3', QUANTITY='TEMPERATURE', XYZ=16.2,-8.6,5.0/
&DEVC ID='temp_void_first2_4', QUANTITY='TEMPERATURE', XYZ=16.2,-8.4,5.0/
&DEVC ID='temp_void_first2_5', QUANTITY='TEMPERATURE', XYZ=16.2,-8.2,5.0/
&DEVC ID='temp_void_first2_6', QUANTITY='TEMPERATURE', XYZ=16.2,-8.0,5.0/
&DEVC ID='temp_void_first2_7', QUANTITY='TEMPERATURE', XYZ=16.2,-7.8,5.0/
&DEVC ID='temp_void_first2_8', QUANTITY='TEMPERATURE', XYZ=16.2,-7.6,5.0/
&DEVC ID='temp_void_first2_9', QUANTITY='TEMPERATURE', XYZ=16.2,-7.4,5.0/
&DEVC ID='temp_void_first2_10', QUANTITY='TEMPERATURE', XYZ=16.2,-7.2,5.0/
&DEVC ID='temp_void_first2_11', QUANTITY='TEMPERATURE', XYZ=16.2,-7.0,5.0/
&DEVC ID='temp_void_first2_12', QUANTITY='TEMPERATURE', XYZ=16.2,-6.8,5.0/
&DEVC ID='temp_void_first2_13', QUANTITY='TEMPERATURE', XYZ=16.2,-6.6,5.0/
&DEVC ID='temp_void_first2_14', QUANTITY='TEMPERATURE', XYZ=16.2,-6.4,5.0/
&DEVC ID='temp_void_first2_15', QUANTITY='TEMPERATURE', XYZ=16.2,-6.2,5.0/
&DEVC ID='temp_void_first2_16', QUANTITY='TEMPERATURE', XYZ=16.2,-6.0,5.0/
&DEVC ID='temp_first1_1', QUANTITY='TEMPERATURE', XYZ=23.8,-14.4,5.0/
&DEVC ID='temp_first1_2', QUANTITY='TEMPERATURE', XYZ=24.0,-14.4,5.0/
&DEVC ID='temp_first1_3', QUANTITY='TEMPERATURE', XYZ=24.2,-14.4,5.0/
&DEVC ID='temp_first1_4', QUANTITY='TEMPERATURE', XYZ=24.4,-14.4,5.0/
&DEVC ID='temp_first1_5', QUANTITY='TEMPERATURE', XYZ=24.6,-14.4,5.0/
&DEVC ID='temp_first1_6', QUANTITY='TEMPERATURE', XYZ=24.8,-14.4,5.0/
&DEVC ID='temp_first1_7', QUANTITY='TEMPERATURE', XYZ=25.0,-14.4,5.0/
&DEVC ID='temp_first2_1', QUANTITY='TEMPERATURE', XYZ=52.2,-24.2,5.0/
&DEVC ID='temp_first2_2', QUANTITY='TEMPERATURE', XYZ=52.2,-24.0,5.0/
&DEVC ID='temp_first2_3', QUANTITY='TEMPERATURE', XYZ=52.2,-23.8,5.0/
&DEVC ID='temp_first2_4', QUANTITY='TEMPERATURE', XYZ=52.2,-23.6,5.0/
&DEVC ID='temp_first2_5', QUANTITY='TEMPERATURE', XYZ=52.2,-23.4,5.0/
&DEVC ID='temp_first2_6', QUANTITY='TEMPERATURE', XYZ=52.2,-23.2,5.0/
&DEVC ID='temp_first2_7', QUANTITY='TEMPERATURE', XYZ=52.2,-23.0,5.0/
&DEVC ID='temp_first3_1', QUANTITY='TEMPERATURE', XYZ=30.8,-14.6,5.0/
&DEVC ID='temp_first3_2', QUANTITY='TEMPERATURE', XYZ=30.8,-14.2,5.0/
&DEVC ID='temp_first3_3', QUANTITY='TEMPERATURE', XYZ=30.8,-13.8,5.0/
&DEVC ID='temp_first3_4', QUANTITY='TEMPERATURE', XYZ=30.8,-13.4,5.0/
&DEVC ID='temp_first3_5', QUANTITY='TEMPERATURE', XYZ=30.8,-13.0,5.0/
&DEVC ID='temp_first3_6', QUANTITY='TEMPERATURE', XYZ=30.8,-12.6,5.0/
&DEVC ID='temp_first3_7', QUANTITY='TEMPERATURE', XYZ=30.8,-12.2,5.0/
&DEVC ID='temp_first3_8', QUANTITY='TEMPERATURE', XYZ=30.8,-11.8,5.0/
&DEVC ID='temp_first3_9', QUANTITY='TEMPERATURE', XYZ=30.8,-11.4,5.0/
&DEVC ID='temp_first3_10', QUANTITY='TEMPERATURE', XYZ=30.8,-11.0,5.0/
&DEVC ID='temp_first3_11', QUANTITY='TEMPERATURE', XYZ=30.8,-10.6,5.0/
&DEVC ID='temp_first3_12', QUANTITY='TEMPERATURE', XYZ=30.8,-10.2,5.0/
&DEVC ID='temp_first3_13', QUANTITY='TEMPERATURE', XYZ=30.8,-9.8,5.0/
&DEVC ID='temp_first3_14', QUANTITY='TEMPERATURE', XYZ=30.8,-9.4,5.0/
&DEVC ID='temp_first3_15', QUANTITY='TEMPERATURE', XYZ=30.8,-9.0,5.0/
&DEVC ID='temp_first3_16', QUANTITY='TEMPERATURE', XYZ=30.8,-8.6,5.0/
&DEVC ID='temp_first3_17', QUANTITY='TEMPERATURE', XYZ=30.8,-8.2,5.0/
&DEVC ID='temp_first3_18', QUANTITY='TEMPERATURE', XYZ=30.8,-7.8,5.0/
&DEVC ID='temp_first3_19', QUANTITY='TEMPERATURE', XYZ=30.8,-7.4,5.0/
&DEVC ID='temp_first3_20', QUANTITY='TEMPERATURE', XYZ=30.8,-7.0,5.0/
&DEVC ID='temp_first3_21', QUANTITY='TEMPERATURE', XYZ=30.8,-6.6,5.0/
&DEVC ID='temp_first3_22', QUANTITY='TEMPERATURE', XYZ=30.8,-6.2,5.0/
&DEVC ID='temp_atr_secn1_1', QUANTITY='TEMPERATURE', XYZ=2.6,-6.4,8.6/
&DEVC ID='temp_atr_secn1_2', QUANTITY='TEMPERATURE', XYZ=3.0,-6.4,8.6/
&DEVC ID='temp_atr_secn1_3', QUANTITY='TEMPERATURE', XYZ=3.4,-6.4,8.6/
&DEVC ID='temp_atr_secn1_4', QUANTITY='TEMPERATURE', XYZ=3.8,-6.4,8.6/
&DEVC ID='temp_atr_secn1_5', QUANTITY='TEMPERATURE', XYZ=4.2,-6.4,8.6/
&DEVC ID='temp_atr_secn1_6', QUANTITY='TEMPERATURE', XYZ=4.6,-6.4,8.6/
&DEVC ID='temp_atr_secn2_1', QUANTITY='TEMPERATURE', XYZ=21.2,-6.0,8.6/
&DEVC ID='temp_atr_secn2_2', QUANTITY='TEMPERATURE', XYZ=21.4,-6.0,8.6/
&DEVC ID='temp_atr_secn2_3', QUANTITY='TEMPERATURE', XYZ=21.6,-6.0,8.6/
&DEVC ID='temp_atr_secn2_4', QUANTITY='TEMPERATURE', XYZ=21.8,-6.0,8.6/
&DEVC ID='temp_atr_secn2_5', QUANTITY='TEMPERATURE', XYZ=22.0,-6.0,8.6/
&DEVC ID='temp_atr_secn2_6', QUANTITY='TEMPERATURE', XYZ=22.2,-6.0,8.6/
&DEVC ID='temp_atr_secn2_7', QUANTITY='TEMPERATURE', XYZ=22.4,-6.0,8.6/
&DEVC ID='temp_atr_secn2_8', QUANTITY='TEMPERATURE', XYZ=22.6,-6.0,8.6/
&DEVC ID='temp_atr_secn3_1', QUANTITY='TEMPERATURE', XYZ=26.2,-6.0,8.6/
&DEVC ID='temp_atr_secn3_2', QUANTITY='TEMPERATURE', XYZ=26.4,-6.0,8.6/
&DEVC ID='temp_atr_secn3_3', QUANTITY='TEMPERATURE', XYZ=26.6,-6.0,8.6/
&DEVC ID='temp_atr_secn3_4', QUANTITY='TEMPERATURE', XYZ=26.8,-6.0,8.6/
&DEVC ID='temp_atr_secn3_5', QUANTITY='TEMPERATURE', XYZ=27.0,-6.0,8.6/
&DEVC ID='temp_atr_secn3_6', QUANTITY='TEMPERATURE', XYZ=27.2,-6.0,8.6/
&DEVC ID='temp_atr_secn3_7', QUANTITY='TEMPERATURE', XYZ=27.4,-6.0,8.6/
&DEVC ID='temp_atr_secn3_8', QUANTITY='TEMPERATURE', XYZ=27.6,-6.0,8.6/
&DEVC ID='temp_third1_1', QUANTITY='TEMPERATURE', XYZ=-1.0,38.8,11.2/
&DEVC ID='temp_third1_2', QUANTITY='TEMPERATURE', XYZ=-0.8,38.8,11.2/
&DEVC ID='temp_third1_3', QUANTITY='TEMPERATURE', XYZ=-0.6,38.8,11.2/
&DEVC ID='temp_third1_4', QUANTITY='TEMPERATURE', XYZ=-0.4,38.8,11.2/
&DEVC ID='temp_third1_5', QUANTITY='TEMPERATURE', XYZ=-0.2,38.8,11.2/
&DEVC ID='temp_third1_6', QUANTITY='TEMPERATURE', XYZ=0.0,38.8,11.2/
&DEVC ID='temp_third1_7', QUANTITY='TEMPERATURE', XYZ=0.2,38.8,11.2/
&DEVC ID='temp_third1_8', QUANTITY='TEMPERATURE', XYZ=0.4,38.8,11.2/
&DEVC ID='temp_third1_9', QUANTITY='TEMPERATURE', XYZ=0.6,38.8,11.2/
&DEVC ID='temp_third1_10', QUANTITY='TEMPERATURE', XYZ=0.8,38.8,11.2/
&DEVC ID='temp_third2_1', QUANTITY='TEMPERATURE', XYZ=-4.0,24.6,11.2/
&DEVC ID='temp_third2_2', QUANTITY='TEMPERATURE', XYZ=-4.0,25.0,11.2/
&DEVC ID='temp_third2_3', QUANTITY='TEMPERATURE', XYZ=-4.0,25.4,11.2/
&DEVC ID='temp_third2_4', QUANTITY='TEMPERATURE', XYZ=-4.0,25.8,11.2/
&DEVC ID='temp_third2_5', QUANTITY='TEMPERATURE', XYZ=-4.0,26.2,11.2/
&DEVC ID='temp_third2_6', QUANTITY='TEMPERATURE', XYZ=-4.0,26.6,11.2/
&DEVC ID='temp_balc1_1', QUANTITY='TEMPERATURE', XYZ=-1.0,13.2,8.6/
&DEVC ID='temp_balc1_2', QUANTITY='TEMPERATURE', XYZ=-0.8,13.2,8.6/
&DEVC ID='temp_balc1_3', QUANTITY='TEMPERATURE', XYZ=-0.6,13.2,8.6/
&DEVC ID='temp_balc1_4', QUANTITY='TEMPERATURE', XYZ=-0.4,13.2,8.6/
&DEVC ID='temp_balc1_5', QUANTITY='TEMPERATURE', XYZ=-0.2,13.2,8.6/
&DEVC ID='temp_balc1_6', QUANTITY='TEMPERATURE', XYZ=-0.0,13.2,8.6/
&DEVC ID='temp_balc1_7', QUANTITY='TEMPERATURE', XYZ=0.2,13.2,8.6/
&DEVC ID='temp_balc1_8', QUANTITY='TEMPERATURE', XYZ=0.4,13.2,8.6/
&DEVC ID='temp_balc1_9', QUANTITY='TEMPERATURE', XYZ=0.6,13.2,8.6/
&DEVC ID='temp_balc1_10', QUANTITY='TEMPERATURE', XYZ=0.8,13.2,8.6/
&DEVC ID='temp_balc1_11', QUANTITY='TEMPERATURE', XYZ=1.0,13.2,8.6/
&DEVC ID='temp_balc1_12', QUANTITY='TEMPERATURE', XYZ=1.2,13.2,8.6/
&DEVC ID='temp_balc1_13', QUANTITY='TEMPERATURE', XYZ=1.4,13.2,8.6/
&DEVC ID='temp_balc1_14', QUANTITY='TEMPERATURE', XYZ=1.6,13.2,8.6/
&DEVC ID='temp_balc1_15', QUANTITY='TEMPERATURE', XYZ=1.8,13.2,8.6/
&DEVC ID='temp_balc1_16', QUANTITY='TEMPERATURE', XYZ=2.0,13.2,8.6/
&DEVC ID='temp_balc1_17', QUANTITY='TEMPERATURE', XYZ=2.2,13.2,8.6/
&DEVC ID='temp_balc1_18', QUANTITY='TEMPERATURE', XYZ=2.4,13.2,8.6/
&DEVC ID='temp_balc2_1', QUANTITY='TEMPERATURE', XYZ=2.6,13.2,11.2/
&DEVC ID='temp_balc2_2', QUANTITY='TEMPERATURE', XYZ=2.8,13.2,11.2/
&DEVC ID='temp_balc2_3', QUANTITY='TEMPERATURE', XYZ=3.0,13.2,11.2/
&DEVC ID='temp_balc2_4', QUANTITY='TEMPERATURE', XYZ=3.2,13.2,11.2/
&DEVC ID='temp_balc2_5', QUANTITY='TEMPERATURE', XYZ=3.4,13.2,11.2/
&DEVC ID='temp_balc2_6', QUANTITY='TEMPERATURE', XYZ=3.6,13.2,11.2/
&DEVC ID='temp_balc2_7', QUANTITY='TEMPERATURE', XYZ=3.8,13.2,11.2/
&DEVC ID='temp_balc2_8', QUANTITY='TEMPERATURE', XYZ=4.0,13.2,11.2/
&DEVC ID='temp_lift_low_1', QUANTITY='TEMPERATURE', XYZ=2.6,-3.6,8.6/
&DEVC ID='temp_lift_low_2', QUANTITY='TEMPERATURE', XYZ=3.0,-3.6,8.6/
&DEVC ID='temp_lift_low_3', QUANTITY='TEMPERATURE', XYZ=3.4,-3.6,8.6/
&DEVC ID='temp_lift_low_4', QUANTITY='TEMPERATURE', XYZ=3.8,-3.6,8.6/
&DEVC ID='temp_lift_low_5', QUANTITY='TEMPERATURE', XYZ=4.2,-3.6,8.6/
&DEVC ID='temp_lift_low_6', QUANTITY='TEMPERATURE', XYZ=4.6,-3.6,8.6/
&DEVC ID='temp_lift_high_1', QUANTITY='TEMPERATURE', XYZ=2.6,-3.6,11.2/
&DEVC ID='temp_lift_high_2', QUANTITY='TEMPERATURE', XYZ=3.0,-3.6,11.2/
&DEVC ID='temp_lift_high_3', QUANTITY='TEMPERATURE', XYZ=3.4,-3.6,11.2/
&DEVC ID='temp_lift_high_4', QUANTITY='TEMPERATURE', XYZ=3.8,-3.6,11.2/
&DEVC ID='temp_lift_high_5', QUANTITY='TEMPERATURE', XYZ=4.2,-3.6,11.2/
&DEVC ID='temp_lift_high_6', QUANTITY='TEMPERATURE', XYZ=4.6,-3.6,11.2/
&DEVC ID='vis_ground1_1', QUANTITY='VISIBILITY', XYZ=7.8,-14.6,2.0/
&DEVC ID='vis_ground1_2', QUANTITY='VISIBILITY', XYZ=8.0,-14.6,2.0/
&DEVC ID='vis_ground1_3', QUANTITY='VISIBILITY', XYZ=8.2,-14.6,2.0/
&DEVC ID='vis_ground1_4', QUANTITY='VISIBILITY', XYZ=8.4,-14.6,2.0/
&DEVC ID='vis_ground1_5', QUANTITY='VISIBILITY', XYZ=8.6,-14.6,2.0/
&DEVC ID='vis_void_first1_1', QUANTITY='VISIBILITY', XYZ=10.8,-4.8,5.0/
&DEVC ID='vis_void_first1_2', QUANTITY='VISIBILITY', XYZ=11.2,-4.8,5.0/
&DEVC ID='vis_void_first1_3', QUANTITY='VISIBILITY', XYZ=11.6,-4.8,5.0/
&DEVC ID='vis_void_first1_4', QUANTITY='VISIBILITY', XYZ=12.0,-4.8,5.0/
&DEVC ID='vis_void_first1_5', QUANTITY='VISIBILITY', XYZ=12.4,-4.8,5.0/
&DEVC ID='vis_void_first1_6', QUANTITY='VISIBILITY', XYZ=12.8,-4.8,5.0/
&DEVC ID='vis_void_first1_7', QUANTITY='VISIBILITY', XYZ=13.2,-4.8,5.0/
&DEVC ID='vis_void_first1_8', QUANTITY='VISIBILITY', XYZ=13.6,-4.8,5.0/
&DEVC ID='vis_void_first2_1', QUANTITY='VISIBILITY', XYZ=16.2,-9.0,5.0/
&DEVC ID='vis_void_first2_2', QUANTITY='VISIBILITY', XYZ=16.2,-8.8,5.0/
&DEVC ID='vis_void_first2_3', QUANTITY='VISIBILITY', XYZ=16.2,-8.6,5.0/
&DEVC ID='vis_void_first2_4', QUANTITY='VISIBILITY', XYZ=16.2,-8.4,5.0/
&DEVC ID='vis_void_first2_5', QUANTITY='VISIBILITY', XYZ=16.2,-8.2,5.0/
&DEVC ID='vis_void_first2_6', QUANTITY='VISIBILITY', XYZ=16.2,-8.0,5.0/
&DEVC ID='vis_void_first2_7', QUANTITY='VISIBILITY', XYZ=16.2,-7.8,5.0/
&DEVC ID='vis_void_first2_8', QUANTITY='VISIBILITY', XYZ=16.2,-7.6,5.0/
&DEVC ID='vis_void_first2_9', QUANTITY='VISIBILITY', XYZ=16.2,-7.4,5.0/
&DEVC ID='vis_void_first2_10', QUANTITY='VISIBILITY', XYZ=16.2,-7.2,5.0/
&DEVC ID='vis_void_first2_11', QUANTITY='VISIBILITY', XYZ=16.2,-7.0,5.0/
&DEVC ID='vis_void_first2_12', QUANTITY='VISIBILITY', XYZ=16.2,-6.8,5.0/
&DEVC ID='vis_void_first2_13', QUANTITY='VISIBILITY', XYZ=16.2,-6.6,5.0/
&DEVC ID='vis_void_first2_14', QUANTITY='VISIBILITY', XYZ=16.2,-6.4,5.0/
&DEVC ID='vis_void_first2_15', QUANTITY='VISIBILITY', XYZ=16.2,-6.2,5.0/
&DEVC ID='vis_void_first2_16', QUANTITY='VISIBILITY', XYZ=16.2,-6.0,5.0/
&DEVC ID='vis_first1_1', QUANTITY='VISIBILITY', XYZ=23.8,-14.4,5.0/
&DEVC ID='vis_first1_2', QUANTITY='VISIBILITY', XYZ=24.0,-14.4,5.0/
&DEVC ID='vis_first1_3', QUANTITY='VISIBILITY', XYZ=24.2,-14.4,5.0/
&DEVC ID='vis_first1_4', QUANTITY='VISIBILITY', XYZ=24.4,-14.4,5.0/
&DEVC ID='vis_first1_5', QUANTITY='VISIBILITY', XYZ=24.6,-14.4,5.0/
&DEVC ID='vis_first1_6', QUANTITY='VISIBILITY', XYZ=24.8,-14.4,5.0/
&DEVC ID='vis_first1_7', QUANTITY='VISIBILITY', XYZ=25.0,-14.4,5.0/
&DEVC ID='vis_first2_1', QUANTITY='VISIBILITY', XYZ=52.2,-24.2,5.0/
&DEVC ID='vis_first2_2', QUANTITY='VISIBILITY', XYZ=52.2,-24.0,5.0/
&DEVC ID='vis_first2_3', QUANTITY='VISIBILITY', XYZ=52.2,-23.8,5.0/
&DEVC ID='vis_first2_4', QUANTITY='VISIBILITY', XYZ=52.2,-23.6,5.0/
&DEVC ID='vis_first2_5', QUANTITY='VISIBILITY', XYZ=52.2,-23.4,5.0/
&DEVC ID='vis_first2_6', QUANTITY='VISIBILITY', XYZ=52.2,-23.2,5.0/
&DEVC ID='vis_first2_7', QUANTITY='VISIBILITY', XYZ=52.2,-23.0,5.0/
&DEVC ID='vis_first3_1', QUANTITY='VISIBILITY', XYZ=30.8,-14.6,5.0/
&DEVC ID='vis_first3_2', QUANTITY='VISIBILITY', XYZ=30.8,-14.2,5.0/
&DEVC ID='vis_first3_3', QUANTITY='VISIBILITY', XYZ=30.8,-13.8,5.0/
&DEVC ID='vis_first3_4', QUANTITY='VISIBILITY', XYZ=30.8,-13.4,5.0/
&DEVC ID='vis_first3_5', QUANTITY='VISIBILITY', XYZ=30.8,-13.0,5.0/
&DEVC ID='vis_first3_6', QUANTITY='VISIBILITY', XYZ=30.8,-12.6,5.0/
&DEVC ID='vis_first3_7', QUANTITY='VISIBILITY', XYZ=30.8,-12.2,5.0/
&DEVC ID='vis_first3_8', QUANTITY='VISIBILITY', XYZ=30.8,-11.8,5.0/
&DEVC ID='vis_first3_9', QUANTITY='VISIBILITY', XYZ=30.8,-11.4,5.0/
&DEVC ID='vis_first3_10', QUANTITY='VISIBILITY', XYZ=30.8,-11.0,5.0/
&DEVC ID='vis_first3_11', QUANTITY='VISIBILITY', XYZ=30.8,-10.6,5.0/
&DEVC ID='vis_first3_12', QUANTITY='VISIBILITY', XYZ=30.8,-10.2,5.0/
&DEVC ID='vis_first3_13', QUANTITY='VISIBILITY', XYZ=30.8,-9.8,5.0/
&DEVC ID='vis_first3_14', QUANTITY='VISIBILITY', XYZ=30.8,-9.4,5.0/
&DEVC ID='vis_first3_15', QUANTITY='VISIBILITY', XYZ=30.8,-9.0,5.0/
&DEVC ID='vis_first3_16', QUANTITY='VISIBILITY', XYZ=30.8,-8.6,5.0/
&DEVC ID='vis_first3_17', QUANTITY='VISIBILITY', XYZ=30.8,-8.2,5.0/
&DEVC ID='vis_first3_18', QUANTITY='VISIBILITY', XYZ=30.8,-7.8,5.0/
&DEVC ID='vis_first3_19', QUANTITY='VISIBILITY', XYZ=30.8,-7.4,5.0/
&DEVC ID='vis_first3_20', QUANTITY='VISIBILITY', XYZ=30.8,-7.0,5.0/
&DEVC ID='vis_first3_21', QUANTITY='VISIBILITY', XYZ=30.8,-6.6,5.0/
&DEVC ID='vis_first3_22', QUANTITY='VISIBILITY', XYZ=30.8,-6.2,5.0/
&DEVC ID='vis_atr_secn1_1', QUANTITY='VISIBILITY', XYZ=2.6,-6.4,8.6/
&DEVC ID='vis_atr_secn1_2', QUANTITY='VISIBILITY', XYZ=3.0,-6.4,8.6/
&DEVC ID='vis_atr_secn1_3', QUANTITY='VISIBILITY', XYZ=3.4,-6.4,8.6/
&DEVC ID='vis_atr_secn1_4', QUANTITY='VISIBILITY', XYZ=3.8,-6.4,8.6/
&DEVC ID='vis_atr_secn1_5', QUANTITY='VISIBILITY', XYZ=4.2,-6.4,8.6/
&DEVC ID='vis_atr_secn1_6', QUANTITY='VISIBILITY', XYZ=4.6,-6.4,8.6/
&DEVC ID='vis_atr_secn2_1', QUANTITY='VISIBILITY', XYZ=21.2,-6.0,8.6/
&DEVC ID='vis_atr_secn2_2', QUANTITY='VISIBILITY', XYZ=21.4,-6.0,8.6/
&DEVC ID='vis_atr_secn2_3', QUANTITY='VISIBILITY', XYZ=21.6,-6.0,8.6/
&DEVC ID='vis_atr_secn2_4', QUANTITY='VISIBILITY', XYZ=21.8,-6.0,8.6/
&DEVC ID='vis_atr_secn2_5', QUANTITY='VISIBILITY', XYZ=22.0,-6.0,8.6/
&DEVC ID='vis_atr_secn2_6', QUANTITY='VISIBILITY', XYZ=22.2,-6.0,8.6/
&DEVC ID='vis_atr_secn2_7', QUANTITY='VISIBILITY', XYZ=22.4,-6.0,8.6/
&DEVC ID='vis_atr_secn2_8', QUANTITY='VISIBILITY', XYZ=22.6,-6.0,8.6/
&DEVC ID='vis_atr_secn3_1', QUANTITY='VISIBILITY', XYZ=26.2,-6.0,8.6/
&DEVC ID='vis_atr_secn3_2', QUANTITY='VISIBILITY', XYZ=26.4,-6.0,8.6/
&DEVC ID='vis_atr_secn3_3', QUANTITY='VISIBILITY', XYZ=26.6,-6.0,8.6/
&DEVC ID='vis_atr_secn3_4', QUANTITY='VISIBILITY', XYZ=26.8,-6.0,8.6/
&DEVC ID='vis_atr_secn3_5', QUANTITY='VISIBILITY', XYZ=27.0,-6.0,8.6/
&DEVC ID='vis_atr_secn3_6', QUANTITY='VISIBILITY', XYZ=27.2,-6.0,8.6/
&DEVC ID='vis_atr_secn3_7', QUANTITY='VISIBILITY', XYZ=27.4,-6.0,8.6/
&DEVC ID='vis_atr_secn3_8', QUANTITY='VISIBILITY', XYZ=27.6,-6.0,8.6/
&DEVC ID='vis_third1_1', QUANTITY='VISIBILITY', XYZ=-1.0,38.8,11.2/
&DEVC ID='vis_third1_2', QUANTITY='VISIBILITY', XYZ=-0.8,38.8,11.2/
&DEVC ID='vis_third1_3', QUANTITY='VISIBILITY', XYZ=-0.6,38.8,11.2/
&DEVC ID='vis_third1_4', QUANTITY='VISIBILITY', XYZ=-0.4,38.8,11.2/
&DEVC ID='vis_third1_5', QUANTITY='VISIBILITY', XYZ=-0.2,38.8,11.2/
&DEVC ID='vis_third1_6', QUANTITY='VISIBILITY', XYZ=0.0,38.8,11.2/
&DEVC ID='vis_third1_7', QUANTITY='VISIBILITY', XYZ=0.2,38.8,11.2/
&DEVC ID='vis_third1_8', QUANTITY='VISIBILITY', XYZ=0.4,38.8,11.2/
&DEVC ID='vis_third1_9', QUANTITY='VISIBILITY', XYZ=0.6,38.8,11.2/
&DEVC ID='vis_third1_10', QUANTITY='VISIBILITY', XYZ=0.8,38.8,11.2/
&DEVC ID='vis_third2_1', QUANTITY='VISIBILITY', XYZ=-4.0,24.6,11.2/
&DEVC ID='vis_third2_2', QUANTITY='VISIBILITY', XYZ=-4.0,25.0,11.2/
&DEVC ID='vis_third2_3', QUANTITY='VISIBILITY', XYZ=-4.0,25.4,11.2/
&DEVC ID='vis_third2_4', QUANTITY='VISIBILITY', XYZ=-4.0,25.8,11.2/
&DEVC ID='vis_third2_5', QUANTITY='VISIBILITY', XYZ=-4.0,26.2,11.2/
&DEVC ID='vis_third2_6', QUANTITY='VISIBILITY', XYZ=-4.0,26.6,11.2/
&DEVC ID='vis_balc1_1', QUANTITY='VISIBILITY', XYZ=-1.0,13.2,8.6/
&DEVC ID='vis_balc1_2', QUANTITY='VISIBILITY', XYZ=-0.8,13.2,8.6/
&DEVC ID='vis_balc1_3', QUANTITY='VISIBILITY', XYZ=-0.6,13.2,8.6/
&DEVC ID='vis_balc1_4', QUANTITY='VISIBILITY', XYZ=-0.4,13.2,8.6/
&DEVC ID='vis_balc1_5', QUANTITY='VISIBILITY', XYZ=-0.2,13.2,8.6/
&DEVC ID='vis_balc1_6', QUANTITY='VISIBILITY', XYZ=-0.0,13.2,8.6/
&DEVC ID='vis_balc1_7', QUANTITY='VISIBILITY', XYZ=0.2,13.2,8.6/
&DEVC ID='vis_balc1_8', QUANTITY='VISIBILITY', XYZ=0.4,13.2,8.6/
&DEVC ID='vis_balc1_9', QUANTITY='VISIBILITY', XYZ=0.6,13.2,8.6/
&DEVC ID='vis_balc1_10', QUANTITY='VISIBILITY', XYZ=0.8,13.2,8.6/
&DEVC ID='vis_balc1_11', QUANTITY='VISIBILITY', XYZ=1.0,13.2,8.6/
&DEVC ID='vis_balc1_12', QUANTITY='VISIBILITY', XYZ=1.2,13.2,8.6/
&DEVC ID='vis_balc1_13', QUANTITY='VISIBILITY', XYZ=1.4,13.2,8.6/
&DEVC ID='vis_balc1_14', QUANTITY='VISIBILITY', XYZ=1.6,13.2,8.6/
&DEVC ID='vis_balc1_15', QUANTITY='VISIBILITY', XYZ=1.8,13.2,8.6/
&DEVC ID='vis_balc1_16', QUANTITY='VISIBILITY', XYZ=2.0,13.2,8.6/
&DEVC ID='vis_balc1_17', QUANTITY='VISIBILITY', XYZ=2.2,13.2,8.6/
&DEVC ID='vis_balc1_18', QUANTITY='VISIBILITY', XYZ=2.4,13.2,8.6/
&DEVC ID='vis_balc2_1', QUANTITY='VISIBILITY', XYZ=2.6,13.2,11.2/
&DEVC ID='vis_balc2_2', QUANTITY='VISIBILITY', XYZ=2.8,13.2,11.2/
&DEVC ID='vis_balc2_3', QUANTITY='VISIBILITY', XYZ=3.0,13.2,11.2/
&DEVC ID='vis_balc2_4', QUANTITY='VISIBILITY', XYZ=3.2,13.2,11.2/
&DEVC ID='vis_balc2_5', QUANTITY='VISIBILITY', XYZ=3.4,13.2,11.2/
&DEVC ID='vis_balc2_6', QUANTITY='VISIBILITY', XYZ=3.6,13.2,11.2/
&DEVC ID='vis_balc2_7', QUANTITY='VISIBILITY', XYZ=3.8,13.2,11.2/
&DEVC ID='vis_balc2_8', QUANTITY='VISIBILITY', XYZ=4.0,13.2,11.2/
&DEVC ID='vis_lift_low_1', QUANTITY='VISIBILITY', XYZ=2.6,-3.6,8.6/
&DEVC ID='vis_lift_low_2', QUANTITY='VISIBILITY', XYZ=3.0,-3.6,8.6/
&DEVC ID='vis_lift_low_3', QUANTITY='VISIBILITY', XYZ=3.4,-3.6,8.6/
&DEVC ID='vis_lift_low_4', QUANTITY='VISIBILITY', XYZ=3.8,-3.6,8.6/
&DEVC ID='vis_lift_low_5', QUANTITY='VISIBILITY', XYZ=4.2,-3.6,8.6/
&DEVC ID='vis_lift_low_6', QUANTITY='VISIBILITY', XYZ=4.6,-3.6,8.6/
&DEVC ID='vis_lift_high_1', QUANTITY='VISIBILITY', XYZ=2.6,-3.6,11.2/
&DEVC ID='vis_lift_high_2', QUANTITY='VISIBILITY', XYZ=3.0,-3.6,11.2/
&DEVC ID='vis_lift_high_3', QUANTITY='VISIBILITY', XYZ=3.4,-3.6,11.2/
&DEVC ID='vis_lift_high_4', QUANTITY='VISIBILITY', XYZ=3.8,-3.6,11.2/
&DEVC ID='vis_lift_high_5', QUANTITY='VISIBILITY', XYZ=4.2,-3.6,11.2/
&DEVC ID='vis_lift_high_6', QUANTITY='VISIBILITY', XYZ=4.6,-3.6,11.2/


&MESH ID='Level 00 Reception 0.1m Mesh', RGB=255,51,51, IJK=134,56,32, XB=-2.2,11.2,-4.4,1.2,-0.4,2.8/
&MESH ID='Level 00 Double Height 0.1m Mesh 02', RGB=255,51,51, IJK=84,118,38, XB=6.0,14.4,-16.2,-4.4,-0.4,3.4/
&MESH ID='Level 00 Double Height 0.1m Mesh', RGB=255,51,51, IJK=84,118,38, XB=-2.4,6.0,-16.2,-4.4,-0.4,3.4/
&MESH ID='Level 00 Double Height 0.1m Mesh 03', RGB=255,51,51, IJK=84,118,36, XB=-2.4,6.0,-16.2,-4.4,3.4,7.0/
&MESH ID='Level 01 Lift Lobby 0.2m Mesh', COLOR='MAGENTA', IJK=83,28,18, XB=-2.2,14.4,-4.4,1.2,2.8,6.4/
&MESH ID='Level 00 Double Height 0.1m Mesh 04', RGB=255,51,51, IJK=84,118,36, XB=6.0,14.4,-16.2,-4.4,3.4,7.0/
&MESH ID='Level 01 Factory Hall 0.2m Mesh', COLOR='MAGENTA', IJK=132,59,30, XB=14.4,40.8,-16.2,-4.4,1.0,7.0/
&MESH ID='Level 02 Balcony Gallery 0.2m Mesh', COLOR='GREEN', IJK=110,59,39, XB=-2.2,19.8,-16.2,-4.4,7.0,14.8/
&MESH ID='Level 02 Balcony Gallery 0.2m Mesh 02', COLOR='GREEN', IJK=105,59,39, XB=19.8,40.8,-16.2,-4.4,7.0,14.8/
&MESH ID='Level 02 Garden Gallery 0.2m Mesh', RGB=255,153,51, IJK=53,137,37, XB=-4.6,6.0,-4.4,23.0,6.4,13.8/
&MESH ID='Level 03 Landing/Cafe/Corridor 0.2m Mesh', RGB=255,153,51, IJK=130,32,24, XB=-10.0,16.0,23.0,29.4,9.0,13.8/
&MESH ID='Level 03 Cafe 0.2m Mesh', RGB=255,153,51, IJK=80,61,24, XB=-10.0,6.0,29.4,41.6,9.0,13.8/
&MESH ID='Rotunda 1 Stairs 0.2m Mesh', RGB=51,255,255, IJK=47,36,49, XB=19.8,29.2,-4.4,2.8,2.6,12.4/
&MESH ID='Rotunda 1 0.2m Mesh', RGB=51,255,255, IJK=47,42,66, XB=19.8,29.2,2.8,11.2,6.0,19.2/
&MESH ID='Level 01 Factory Hall 0.2m Mesh 02', COLOR='MAGENTA', IJK=106,59,45, XB=40.8,62.0,-16.2,-4.4,2.6,11.6/
&MESH ID='Level 01 Factory Hall 0.2m Mesh 03', COLOR='MAGENTA', IJK=110,28,47, XB=40.0,62.0,-21.8,-16.2,2.6,12.0/
&MESH ID='Level 01 Heritage Centre 0.2m Mesh', COLOR='MAGENTA', IJK=45,71,29, XB=43.8,52.8,-36.0,-21.8,2.6,8.4/
&MESH ID='Level 01 Heritage Centre 0.2m Mesh 02', COLOR='MAGENTA', IJK=28,49,29, XB=52.8,58.4,-35.0,-25.2,2.6,8.4/


&REAC ID='Reception Fire',
      FYI='Table A.31 of SFPE Handbook (5th Edition) for Composition and Heat of Combustion Values.',
      FUEL='REAC_FUEL',
      C=3.43,
      H=5.94,
      O=1.79,
      AUTO_IGNITION_TEMPERATURE=0.0,
      CO_YIELD=0.016,
      SOOT_YIELD=0.056,
      IDEAL=.TRUE./

&CTRL ID='invert', FUNCTION_TYPE='ALL', LATCH=.FALSE., INITIAL_STATE=.TRUE., INPUT_ID='TIMER->OUT25'/
&DEVC ID='L03 Cafe Outlet Mass Flow Positive', QUANTITY='MASS FLOW +', XB=-1.0,0.8,39.2,39.2,9.2,11.2/
&DEVC ID='L03 Cafe Outlet Mass Flow Negative', QUANTITY='MASS FLOW -', XB=-1.0,0.8,39.2,39.2,9.2,11.2/
&DEVC ID='L02 Garden Gallery Mass Flow Positive', QUANTITY='MASS FLOW +', XB=-1.2,-1.2,11.0,13.0,6.6,8.6/
&DEVC ID='L02 Garden Gallery Mass Flow Negative', QUANTITY='MASS FLOW -', XB=-1.2,-1.2,11.0,13.0,6.6,8.6/
&DEVC ID='TIMER->OUT', QUANTITY='TIME', XYZ=-2.2,-4.4,-0.4, SETPOINT=59.0/
&DEVC ID='TIMER->OUT2', QUANTITY='TIME', XYZ=-2.2,-4.4,-0.4, SETPOINT=88.5/
&DEVC ID='TIMER->OUT3', QUANTITY='TIME', XYZ=-2.2,-4.4,-0.4, SETPOINT=118.0/
&DEVC ID='TIMER->OUT4', QUANTITY='TIME', XYZ=-2.2,-4.4,-0.4, SETPOINT=147.5/
&DEVC ID='TIMER->OUT5', QUANTITY='TIME', XYZ=-2.2,-4.4,-0.4, SETPOINT=177.01/
&DEVC ID='TIMER->OUT6', QUANTITY='TIME', XYZ=-2.2,-4.4,-0.4, SETPOINT=206.51/
&DEVC ID='TIMER->OUT7', QUANTITY='TIME', XYZ=-2.2,-4.4,-0.4, SETPOINT=236.01/
&DEVC ID='TIMER->OUT8', QUANTITY='TIME', XYZ=-2.2,-4.4,-0.4, SETPOINT=265.51/
&DEVC ID='TIMER->OUT9', QUANTITY='TIME', XYZ=-2.2,-4.4,-0.4, SETPOINT=295.01/
&DEVC ID='TIMER->OUT10', QUANTITY='TIME', XYZ=-2.2,-4.4,-0.4, SETPOINT=324.51/
&DEVC ID='TIMER->OUT11', QUANTITY='TIME', XYZ=-2.2,-4.4,-0.4, SETPOINT=354.01/
&DEVC ID='TIMER->OUT12', QUANTITY='TIME', XYZ=-2.2,-4.4,-0.4, SETPOINT=383.51/
&DEVC ID='TIMER->OUT13', QUANTITY='TIME', XYZ=-2.2,-4.4,-0.4, SETPOINT=413.01/
&DEVC ID='TIMER->OUT14', QUANTITY='TIME', XYZ=-2.2,-4.4,-0.4, SETPOINT=442.51/
&DEVC ID='TIMER->OUT15', QUANTITY='TIME', XYZ=-2.2,-4.4,-0.4, SETPOINT=472.02/
&DEVC ID='TIMER->OUT16', QUANTITY='TIME', XYZ=-2.2,-4.4,-0.4, SETPOINT=501.52/
&DEVC ID='TIMER->OUT17', QUANTITY='TIME', XYZ=-2.2,-4.4,-0.4, SETPOINT=531.02/
&DEVC ID='TIMER->OUT18', QUANTITY='TIME', XYZ=-2.2,-4.4,-0.4, SETPOINT=560.52/
&DEVC ID='TIMER->OUT19', QUANTITY='TIME', XYZ=-2.2,-4.4,-0.4, SETPOINT=590.02/
&DEVC ID='TIMER->OUT20', QUANTITY='TIME', XYZ=-2.2,-4.4,-0.4, SETPOINT=619.52/
&DEVC ID='TIMER->OUT21', QUANTITY='TIME', XYZ=-2.2,-4.4,-0.4, SETPOINT=649.02/
&DEVC ID='TIMER->OUT22', QUANTITY='TIME', XYZ=-2.2,-4.4,-0.4, SETPOINT=678.52/
&DEVC ID='TIMER->OUT23', QUANTITY='TIME', XYZ=-2.2,-4.4,-0.4, SETPOINT=708.02/
&DEVC ID='TIMER->OUT24', QUANTITY='TIME', XYZ=-2.2,-4.4,-0.4, SETPOINT=715.97/
&DEVC ID='TIMER->OUT25', QUANTITY='TIME', XYZ=-2.2,-4.4,-0.4, SETPOINT=60.0/

&MATL ID='Concrete',
      FYI='''Table B.7 of SFPE Handbook (4th edition)',
      SPECIFIC_HEAT=0.88,
      CONDUCTIVITY=1.37,
      DENSITY=2100.0/
&MATL ID='Glass',
      FYI='Principles of Fire Behavior - J.Quintere 1998 - Delmar publishers, pg.238',
      SPECIFIC_HEAT=0.84,
      CONDUCTIVITY=0.78,
      DENSITY=2700.0/
&MATL ID='Steel',
      FYI='Drysdale, Intro to Fire Dynamics - ATF NIST Multi-Floor Validation',
      SPECIFIC_HEAT=0.46,
      CONDUCTIVITY=45.8,
      DENSITY=7850.0/
&MATL ID='Gypsum',
      SPECIFIC_HEAT=0.9,
      CONDUCTIVITY=0.16,
      DENSITY=790.0/

&SURF ID='ADIABATIC',
      COLOR='GRAY 80',
      DEFAULT=.TRUE.,
      ADIABATIC=.TRUE./
&SURF ID='Internal Walls - Cream Finish',
      COLOR='GRAY 80',
      TEXTURE_MAP='White Paint Texture.JPG',
      TMP_INNER=20.0,
      BACKING='VOID',
      MATL_ID(1,1)='Concrete',
      MATL_MASS_FRACTION(1,1)=1.0,
      THICKNESS(1)=0.2,
      GEOMETRY='CARTESIAN',
      LENGTH=0.0,
      WIDTH=0.0/
&SURF ID='Slab',
      COLOR='GRAY 40',
      TMP_INNER=20.0,
      BACKING='VOID',
      MATL_ID(1,1)='Concrete',
      MATL_MASS_FRACTION(1,1)=1.0,
      THICKNESS(1)=0.8,
      GEOMETRY='CARTESIAN',
      LENGTH=0.0,
      WIDTH=0.0/
&SURF ID='GLASS - Red Entrance Glazing Finish',
      RGB=204,255,255,
      TRANSPARENCY=0.501961,
      TEXTURE_MAP='Red Glass Texture.JPG',
      BACKING='VOID',
      MATL_ID(1,1)='Glass',
      MATL_MASS_FRACTION(1,1)=1.0,
      THICKNESS(1)=1.0,
      GEOMETRY='CARTESIAN',
      LENGTH=0.0,
      WIDTH=0.0/
&SURF ID='Internal Walls - Wooden Door Finish',
      COLOR='GRAY 80',
      TEXTURE_MAP='Wooden Door Texture_1.JPG',
      TMP_INNER=20.0,
      BACKING='VOID',
      MATL_ID(1,1)='Concrete',
      MATL_MASS_FRACTION(1,1)=1.0,
      THICKNESS(1)=0.2,
      GEOMETRY='CARTESIAN',
      LENGTH=0.0,
      WIDTH=0.0/
&SURF ID='GLASS - Glass Door Finish',
      RGB=204,255,255,
      TRANSPARENCY=0.501961,
      TEXTURE_MAP='Glass Window Texture_2.JPG',
      BACKING='VOID',
      MATL_ID(1,1)='Glass',
      MATL_MASS_FRACTION(1,1)=1.0,
      THICKNESS(1)=1.0,
      GEOMETRY='CARTESIAN',
      LENGTH=0.0,
      WIDTH=0.0/
&SURF ID='GLASS - Clear Window Finish',
      RGB=204,255,255,
      TRANSPARENCY=0.501961,
      TEXTURE_MAP='Glass Window Texture_1.JPG',
      BACKING='VOID',
      MATL_ID(1,1)='Glass',
      MATL_MASS_FRACTION(1,1)=1.0,
      THICKNESS(1)=1.0,
      GEOMETRY='CARTESIAN',
      LENGTH=0.0,
      WIDTH=0.0/
&SURF ID='Internal Walls - Dabo Wall Finish',
      COLOR='GRAY 80',
      TEXTURE_MAP='Wooden Dado Texture_1.JPG',
      TMP_INNER=20.0,
      BACKING='VOID',
      MATL_ID(1,1)='Concrete',
      MATL_MASS_FRACTION(1,1)=1.0,
      THICKNESS(1)=0.2,
      GEOMETRY='CARTESIAN',
      LENGTH=0.0,
      WIDTH=0.0/
&SURF ID='Internal Walls - Cornice Finish',
      COLOR='GRAY 80',
      TEXTURE_MAP='White Cornice_2.JPG',
      TMP_INNER=20.0,
      BACKING='VOID',
      MATL_ID(1,1)='Concrete',
      MATL_MASS_FRACTION(1,1)=1.0,
      THICKNESS(1)=0.2,
      GEOMETRY='CARTESIAN',
      LENGTH=0.0,
      WIDTH=0.0/
&SURF ID='Slab - Roof Slate',
      COLOR='GRAY 40',
      TEXTURE_MAP='Roof Slate Texture.JPG',
      TMP_INNER=20.0,
      BACKING='VOID',
      MATL_ID(1,1)='Concrete',
      MATL_MASS_FRACTION(1,1)=1.0,
      THICKNESS(1)=0.8,
      GEOMETRY='CARTESIAN',
      LENGTH=0.0,
      WIDTH=0.0/
&SURF ID='GLASS - Clear Balustrate Finish',
      RGB=204,255,255,
      TRANSPARENCY=0.501961,
      BACKING='VOID',
      MATL_ID(1,1)='Glass',
      MATL_MASS_FRACTION(1,1)=1.0,
      THICKNESS(1)=1.0,
      GEOMETRY='CARTESIAN',
      LENGTH=0.0,
      WIDTH=0.0/
&SURF ID='Steel - West Extension Roof',
      COLOR='GRAY 80',
      TMP_INNER=20.0,
      BACKING='VOID',
      MATL_ID(1,1)='Steel',
      MATL_MASS_FRACTION(1,1)=1.0,
      THICKNESS(1)=0.01/
&SURF ID='Internal Walls - Lift Door Finish',
      COLOR='GRAY 80',
      TEXTURE_MAP='Lift Door_1.JPG',
      TMP_INNER=20.0,
      BACKING='VOID',
      MATL_ID(1,1)='Concrete',
      MATL_MASS_FRACTION(1,1)=1.0,
      THICKNESS(1)=0.2,
      GEOMETRY='CARTESIAN',
      LENGTH=0.0,
      WIDTH=0.0/
&SURF ID='Gypsum -Balcony Balustrades',
      RGB=255,255,153,
      TEXTURE_MAP='Wooden Balustrade Texture.JPG',
      BACKING='VOID',
      MATL_ID(1,1)='Gypsum',
      MATL_MASS_FRACTION(1,1)=1.0,
      THICKNESS(1)=0.15,
      GEOMETRY='CARTESIAN',
      LENGTH=0.0,
      WIDTH=0.0/
&SURF ID='Gypsum - Level 3 New Walls',
      RGB=255,255,153,
      TEXTURE_MAP='Magnolia Texture.JPG',
      BACKING='VOID',
      MATL_ID(1,1)='Gypsum',
      MATL_MASS_FRACTION(1,1)=1.0,