sc1_near_upv.fds
Generated by PyroSim - Version 2018.3.1210
22-May-2019 16:33:29

-------------User Section (not generated by PyroSim)-------------




--------------------PyroSim-generated Section--------------------

&HEAD CHID='sc1_near_upv'/
&TIME T_END=900.0/
&DUMP RENDER_FILE='sc1_near_upv.ge1', COLUMN_DUMP_LIMIT=.TRUE., DT_PL3D=60.0, DT_RESTART=1200.0, DT_SLCF=2.0, NFRAMES=450, WRITE_XYZ=.TRUE., PLOT3D_QUANTITY='TEMPERATURE','U-VELOCITY','V-VELOCITY','W-VELOCITY','VISIBILITY'/

&MESH ID='Mesh06', IJK=86,156,40, XB=8.0,16.6,44.4,60.0,-0.2,3.8/
&MESH ID='Mesh07', IJK=92,151,20, XB=-10.4,8.0,29.8,60.0,-0.2,3.8/
&MESH ID='Mesh03', IJK=135,78,43, XB=16.6,43.6,44.4,60.0,-4.0,4.6/
&MESH ID='Mesh01', IJK=212,85,20, XB=-10.4,32.0,60.0,77.0,-0.2,3.8/
&MESH ID='Mesh04', IJK=52,39,22, XB=23.4,33.8,45.8,53.6,4.6,9.2/
&MESH ID='MESH03', IJK=178,73,20, XB=8.0,43.6,29.8,44.4,-0.2,3.8/
&MESH ID='Mesh05', IJK=131,151,20, XB=43.6,69.8,29.8,60.0,-0.2,3.8/
&MESH ID='Mesh02', IJK=144,85,20, XB=32.0,60.8,60.0,77.0,-0.2,3.8/
&MESH ID='MESH', IJK=139,164,20, XB=-10.4,17.4,-3.0,29.8,-0.2,3.8/
&MESH ID='MESH02', IJK=131,164,20, XB=17.4,43.6,-3.0,29.8,-0.2,3.8/
&MESH ID='MESH01', IJK=131,164,20, XB=43.6,69.8,-3.0,29.8,-0.2,3.8/

&SPEC ID='WATER VAPOR'/

&PART ID='Water',
      SPEC_ID='WATER VAPOR',
      DIAMETER=800.0,
      MONODISPERSE=.TRUE.,
      AGE=10.0,
      SAMPLING_FACTOR=1/

&REAC ID='50/50 Wood Poly',
      FYI='FYI 50% WOOD 50% POLYURETHANE',
      FUEL='REAC_FUEL',
      C=4.85,
      H=6.65,
      O=0.5,
      N=2.3,
      AUTO_IGNITION_TEMPERATURE=0.0,
      SOOT_YIELD=0.1,
      EPUMO2=1.209E4,
      IDEAL=.TRUE./

&RAMP ID='time_doors_RAMP', T=29.75, F=-1.0/
&RAMP ID='time_doors_RAMP', T=30.25, F=1.0/
&RAMP ID='time_doors_RAMP', T=179.75, F=1.0/
&RAMP ID='time_doors_RAMP', T=180.25, F=-1.0/
&PROP ID='Generic Commercial Link_Floor spray',
      QUANTITY='SPRINKLER LINK TEMPERATURE',
      ACTIVATION_TEMPERATURE=68.0,
      RTI=50.0,
      PART_ID='Water',
      OFFSET=0.2,
      K_FACTOR=80.0,
      OPERATING_PRESSURE=0.5,
      SPRAY_PATTERN_TABLE='Generic Commercial Link_Floor spray_SPRAY_PATTERN_TABLE'/
&TABL ID='Generic Commercial Link_Floor spray_SPRAY_PATTERN_TABLE', TABLE_DATA=0.0,2.95,0.1,359.9,4.66,0.0104/
&TABL ID='Generic Commercial Link_Floor spray_SPRAY_PATTERN_TABLE', TABLE_DATA=2.95,5.9,0.1,359.9,4.65,0.0109/
&TABL ID='Generic Commercial Link_Floor spray_SPRAY_PATTERN_TABLE', TABLE_DATA=5.9,8.85,0.1,359.9,4.63,0.0121/
&TABL ID='Generic Commercial Link_Floor spray_SPRAY_PATTERN_TABLE', TABLE_DATA=8.85,11.8,0.1,359.9,4.64,0.0135/
&TABL ID='Generic Commercial Link_Floor spray_SPRAY_PATTERN_TABLE', TABLE_DATA=11.8,14.75,0.1,359.9,4.68,0.0152/
&TABL ID='Generic Commercial Link_Floor spray_SPRAY_PATTERN_TABLE', TABLE_DATA=14.75,17.7,0.1,359.9,4.75,0.0166/
&TABL ID='Generic Commercial Link_Floor spray_SPRAY_PATTERN_TABLE', TABLE_DATA=17.7,20.65,0.1,359.9,4.8,0.0181/
&TABL ID='Generic Commercial Link_Floor spray_SPRAY_PATTERN_TABLE', TABLE_DATA=20.65,23.6,0.1,359.9,4.85,0.0207/
&TABL ID='Generic Commercial Link_Floor spray_SPRAY_PATTERN_TABLE', TABLE_DATA=23.6,26.55,0.1,359.9,4.91,0.0236/
&TABL ID='Generic Commercial Link_Floor spray_SPRAY_PATTERN_TABLE', TABLE_DATA=26.55,29.5,0.1,359.9,4.96,0.0267/
&TABL ID='Generic Commercial Link_Floor spray_SPRAY_PATTERN_TABLE', TABLE_DATA=29.5,32.45,0.1,359.9,5.07,0.0308/
&TABL ID='Generic Commercial Link_Floor spray_SPRAY_PATTERN_TABLE', TABLE_DATA=32.45,35.4,0.1,359.9,5.18,0.0382/
&TABL ID='Generic Commercial Link_Floor spray_SPRAY_PATTERN_TABLE', TABLE_DATA=35.4,38.35,0.1,359.9,5.31,0.0438/
&TABL ID='Generic Commercial Link_Floor spray_SPRAY_PATTERN_TABLE', TABLE_DATA=38.35,41.3,0.1,359.9,5.28,0.0488/
&TABL ID='Generic Commercial Link_Floor spray_SPRAY_PATTERN_TABLE', TABLE_DATA=41.3,44.25,0.1,359.9,5.33,0.0548/
&TABL ID='Generic Commercial Link_Floor spray_SPRAY_PATTERN_TABLE', TABLE_DATA=44.25,47.2,0.1,359.9,5.39,0.0592/
&TABL ID='Generic Commercial Link_Floor spray_SPRAY_PATTERN_TABLE', TABLE_DATA=47.2,50.15,0.1,359.9,5.44,0.0646/
&TABL ID='Generic Commercial Link_Floor spray_SPRAY_PATTERN_TABLE', TABLE_DATA=50.15,53.1,0.1,359.9,5.51,0.0675/
&TABL ID='Generic Commercial Link_Floor spray_SPRAY_PATTERN_TABLE', TABLE_DATA=53.1,56.05,0.1,359.9,5.64,0.0692/
&TABL ID='Generic Commercial Link_Floor spray_SPRAY_PATTERN_TABLE', TABLE_DATA=56.05,59.0,0.1,359.9,5.79,0.0701/
&TABL ID='Generic Commercial Link_Floor spray_SPRAY_PATTERN_TABLE', TABLE_DATA=59.0,61.95,0.1,359.9,5.96,0.0672/
&TABL ID='Generic Commercial Link_Floor spray_SPRAY_PATTERN_TABLE', TABLE_DATA=61.95,64.9,0.1,359.9,5.98,0.064/
&TABL ID='Generic Commercial Link_Floor spray_SPRAY_PATTERN_TABLE', TABLE_DATA=64.9,67.85,0.1,359.9,5.8,0.0585/
&TABL ID='Generic Commercial Link_Floor spray_SPRAY_PATTERN_TABLE', TABLE_DATA=67.85,70.8,0.1,359.9,5.35,0.0457/
&TABL ID='Generic Commercial Link_Floor spray_SPRAY_PATTERN_TABLE', TABLE_DATA=70.8,73.75,0.1,359.9,4.53,0.0267/
&TABL ID='Generic Commercial Link_Floor spray_SPRAY_PATTERN_TABLE', TABLE_DATA=73.75,76.7,0.1,359.9,3.53,0.01/
&TABL ID='Generic Commercial Link_Floor spray_SPRAY_PATTERN_TABLE', TABLE_DATA=76.7,79.65,0.1,359.9,2.63,3.9E-3/
&TABL ID='Generic Commercial Link_Floor spray_SPRAY_PATTERN_TABLE', TABLE_DATA=79.65,90.0,0.1,359.9,1.35,9.1E-3/
&CTRL ID='invert', FUNCTION_TYPE='ALL', LATCH=.FALSE., INITIAL_STATE=.TRUE., INPUT_ID='time_doors'/
&CTRL ID='time_doors', FUNCTION_TYPE='CUSTOM', RAMP_ID='time_doors_RAMP', LATCH=.FALSE., INPUT_ID='TIME'/
&DEVC ID='sprinkler', PROP_ID='Generic Commercial Link_Floor spray', XYZ=10.6,57.4,3.4/
&DEVC ID='sprinkler01', PROP_ID='Generic Commercial Link_Floor spray', XYZ=10.6,53.8,3.4/
&DEVC ID='sprinkler02', PROP_ID='Generic Commercial Link_Floor spray', XYZ=10.6,50.2,3.4/
&DEVC ID='sprinkler03', PROP_ID='Generic Commercial Link_Floor spray', XYZ=10.6,46.6,3.4/
&DEVC ID='sprinkler04', PROP_ID='Generic Commercial Link_Floor spray', XYZ=13.6,57.4,3.4/
&DEVC ID='sprinkler05', PROP_ID='Generic Commercial Link_Floor spray', XYZ=13.6,53.8,3.4/
&DEVC ID='sprinkler06', PROP_ID='Generic Commercial Link_Floor spray', XYZ=13.6,50.2,3.4/
&DEVC ID='sprinkler07', PROP_ID='Generic Commercial Link_Floor spray', XYZ=13.6,46.6,3.4/
&DEVC ID='sprinkler08', PROP_ID='Generic Commercial Link_Floor spray', XYZ=5.4,53.8,3.4/
&DEVC ID='sprinkler09', PROP_ID='Generic Commercial Link_Floor spray', XYZ=5.4,57.4,3.4/
&DEVC ID='sprinkler10', PROP_ID='Generic Commercial Link_Floor spray', XYZ=5.4,50.2,3.4/
&DEVC ID='sprinkler11', PROP_ID='Generic Commercial Link_Floor spray', XYZ=5.4,46.6,3.4/
&DEVC ID='sprinkler12', PROP_ID='Generic Commercial Link_Floor spray', XYZ=5.4,62.6,3.4/
&DEVC ID='sprinkler13', PROP_ID='Generic Commercial Link_Floor spray', XYZ=10.6,62.6,3.4/
&DEVC ID='sprinkler14', PROP_ID='Generic Commercial Link_Floor spray', XYZ=13.6,62.6,3.4/
&DEVC ID='sprinkler15', PROP_ID='Generic Commercial Link_Floor spray', XYZ=13.6,41.4,3.4/
&DEVC ID='sprinkler16', PROP_ID='Generic Commercial Link_Floor spray', XYZ=10.6,41.4,3.4/
&DEVC ID='sprinkler17', PROP_ID='Generic Commercial Link_Floor spray', XYZ=5.4,41.4,3.4/
&DEVC ID='ex5_09', QUANTITY='VISIBILITY', XYZ=25.0,3.0,1.8/
&DEVC ID='ex1_00', QUANTITY='VISIBILITY', XYZ=-1.4,44.8,1.8/
&DEVC ID='ex1_01', QUANTITY='VISIBILITY', XYZ=-1.4,45.0,1.8/
&DEVC ID='ex1_02', QUANTITY='VISIBILITY', XYZ=-1.4,45.2,1.8/
&DEVC ID='ex1_03', QUANTITY='VISIBILITY', XYZ=-1.4,45.4,1.8/
&DEVC ID='ex1_04', QUANTITY='VISIBILITY', XYZ=-1.4,45.6,1.8/
&DEVC ID='ex1_05', QUANTITY='VISIBILITY', XYZ=-1.4,45.8,1.8/
&DEVC ID='ex1_06', QUANTITY='VISIBILITY', XYZ=-1.4,46.0,1.8/
&DEVC ID='ex1_07', QUANTITY='VISIBILITY', XYZ=-1.4,46.2,1.8/
&DEVC ID='ex1_08', QUANTITY='VISIBILITY', XYZ=-1.4,46.4,1.8/
&DEVC ID='ex1_09', QUANTITY='VISIBILITY', XYZ=-1.4,46.6,1.8/
&DEVC ID='ex2_00', QUANTITY='VISIBILITY', XYZ=3.2,10.2,1.8/
&DEVC ID='ex2_01', QUANTITY='VISIBILITY', XYZ=3.4,10.2,1.8/
&DEVC ID='ex2_02', QUANTITY='VISIBILITY', XYZ=3.6,10.2,1.8/
&DEVC ID='ex2_03', QUANTITY='VISIBILITY', XYZ=3.8,10.2,1.8/
&DEVC ID='ex2_04', QUANTITY='VISIBILITY', XYZ=4.0,10.2,1.8/
&DEVC ID='ex2_05', QUANTITY='VISIBILITY', XYZ=4.2,10.2,1.8/
&DEVC ID='ex2_06', QUANTITY='VISIBILITY', XYZ=4.4,10.2,1.8/
&DEVC ID='ex2_07', QUANTITY='VISIBILITY', XYZ=4.6,10.2,1.8/
&DEVC ID='ex2_08', QUANTITY='VISIBILITY', XYZ=4.8,10.2,1.8/
&DEVC ID='ex2_09', QUANTITY='VISIBILITY', XYZ=5.0,10.2,1.8/
&DEVC ID='ex3_0', QUANTITY='VISIBILITY', XYZ=60.4,47.0,1.8/
&DEVC ID='ex3_01', QUANTITY='VISIBILITY', XYZ=60.4,47.2,1.8/
&DEVC ID='ex3_02', QUANTITY='VISIBILITY', XYZ=60.4,47.4,1.8/
&DEVC ID='ex3_03', QUANTITY='VISIBILITY', XYZ=60.4,47.6,1.8/
&DEVC ID='ex3_04', QUANTITY='VISIBILITY', XYZ=60.4,47.8,1.8/
&DEVC ID='ex3_05', QUANTITY='VISIBILITY', XYZ=60.4,48.0,1.8/
&DEVC ID='ex3_06', QUANTITY='VISIBILITY', XYZ=60.4,48.2,1.8/
&DEVC ID='ex3_07', QUANTITY='VISIBILITY', XYZ=60.4,48.4,1.8/
&DEVC ID='ex3_08', QUANTITY='VISIBILITY', XYZ=60.4,48.6,1.8/
&DEVC ID='ex3_09', QUANTITY='VISIBILITY', XYZ=60.4,48.8,1.8/
&DEVC ID='ex4_00', QUANTITY='VISIBILITY', XYZ=36.4,72.0,1.8/
&DEVC ID='ex4_01', QUANTITY='VISIBILITY', XYZ=36.6,72.0,1.8/
&DEVC ID='ex4_02', QUANTITY='VISIBILITY', XYZ=36.8,72.0,1.8/
&DEVC ID='ex4_03', QUANTITY='VISIBILITY', XYZ=37.0,72.0,1.8/
&DEVC ID='ex4_04', QUANTITY='VISIBILITY', XYZ=37.2,72.0,1.8/
&DEVC ID='ex4_05', QUANTITY='VISIBILITY', XYZ=37.4,72.0,1.8/
&DEVC ID='ent_00', QUANTITY='VISIBILITY', XYZ=-4.4,61.6,1.8/
&DEVC ID='ent_01', QUANTITY='VISIBILITY', XYZ=-4.0,62.0,1.8/
&DEVC ID='ent_02', QUANTITY='VISIBILITY', XYZ=-3.6,62.4,1.8/
&DEVC ID='ent_03', QUANTITY='VISIBILITY', XYZ=-3.2,62.8,1.8/
&DEVC ID='ent_04', QUANTITY='VISIBILITY', XYZ=-2.8,63.2,1.8/
&DEVC ID='ent_05', QUANTITY='VISIBILITY', XYZ=-2.4,63.6,1.8/
&DEVC ID='ent_06', QUANTITY='VISIBILITY', XYZ=-2.0,64.0,1.8/
&DEVC ID='ent_07', QUANTITY='VISIBILITY', XYZ=-1.6,64.4,1.8/
&DEVC ID='ent_08', QUANTITY='VISIBILITY', XYZ=-1.2,64.8,1.8/
&DEVC ID='ent_09', QUANTITY='VISIBILITY', XYZ=-0.8,65.2,1.8/
&DEVC ID='ent_10', QUANTITY='VISIBILITY', XYZ=-0.4,65.6,1.8/
&DEVC ID='ent_11', QUANTITY='VISIBILITY', XYZ=0.0,66.0,1.8/
&DEVC ID='ent_12', QUANTITY='VISIBILITY', XYZ=0.4,66.4,1.8/
&DEVC ID='ent_13', QUANTITY='VISIBILITY', XYZ=0.8,66.8,1.8/
&DEVC ID='ent_14', QUANTITY='VISIBILITY', XYZ=1.2,67.2,1.8/
&DEVC ID='ent_15', QUANTITY='VISIBILITY', XYZ=1.6,67.6,1.8/
&DEVC ID='ent_16', QUANTITY='VISIBILITY', XYZ=2.0,68.0,1.8/
&DEVC ID='ent_17', QUANTITY='VISIBILITY', XYZ=2.4,68.4,1.8/
&DEVC ID='ent_18', QUANTITY='VISIBILITY', XYZ=2.8,68.8,1.8/
&DEVC ID='ent_19', QUANTITY='VISIBILITY', XYZ=3.2,69.2,1.8/
&DEVC ID='ex5_00', QUANTITY='VISIBILITY', XYZ=23.2,3.0,1.8/
&DEVC ID='ex5_01', QUANTITY='VISIBILITY', XYZ=23.4,3.0,1.8/
&DEVC ID='ex5_02', QUANTITY='VISIBILITY', XYZ=23.6,3.0,1.8/
&DEVC ID='ex5_03', QUANTITY='VISIBILITY', XYZ=23.8,3.0,1.8/
&DEVC ID='ex5_04', QUANTITY='VISIBILITY', XYZ=24.0,3.0,1.8/
&DEVC ID='ex5_05', QUANTITY='VISIBILITY', XYZ=24.2,3.0,1.8/
&DEVC ID='ex5_06', QUANTITY='VISIBILITY', XYZ=24.4,3.0,1.8/
&DEVC ID='ex5_07', QUANTITY='VISIBILITY', XYZ=24.6,3.0,1.8/
&DEVC ID='ex5_08', QUANTITY='VISIBILITY', XYZ=24.8,3.0,1.8/
&DEVC ID='TIMER->OUT', QUANTITY='TIME', XYZ=8.0,44.4,-0.2, SETPOINT=155.0, INITIAL_STATE=.FALSE./
&DEVC ID='TIME', QUANTITY='TIME', XYZ=8.0,44.4,-0.2/

&MATL ID='Plasterboard',
      FYI='[7]B NUREG-1824 – 2007',
      SPECIFIC_HEAT=2.8,
      CONDUCTIVITY=0.147,
      DENSITY=640.0/
&MATL ID='Glass',
      SPECIFIC_HEAT=0.84,
      CONDUCTIVITY=0.76,
      DENSITY=2700.0,
      EMISSIVITY=0.8/

&SURF ID='ADIABATIC',
      COLOR='GRAY 80',
      DEFAULT=.TRUE.,
      ADIABATIC=.TRUE./
&SURF ID='3.75 MW 01',
      COLOR='RED',
      HRRPUA=937.5,
      RAMP_Q='3.75 MW 01_RAMP_Q',
      TMP_FRONT=300.0/
&RAMP ID='3.75 MW 01_RAMP_Q', T=0.0, F=0.0/
&RAMP ID='3.75 MW 01_RAMP_Q', T=5.0, F=1.253333E-3/
&RAMP ID='3.75 MW 01_RAMP_Q', T=10.0, F=5.013333E-3/
&RAMP ID='3.75 MW 01_RAMP_Q', T=15.0, F=0.01128/
&RAMP ID='3.75 MW 01_RAMP_Q', T=20.0, F=0.020053/
&RAMP ID='3.75 MW 01_RAMP_Q', T=25.0, F=0.031333/
&RAMP ID='3.75 MW 01_RAMP_Q', T=30.0, F=0.04512/
&RAMP ID='3.75 MW 01_RAMP_Q', T=35.0, F=0.061413/
&RAMP ID='3.75 MW 01_RAMP_Q', T=40.0, F=0.080213/
&RAMP ID='3.75 MW 01_RAMP_Q', T=45.0, F=0.10152/
&RAMP ID='3.75 MW 01_RAMP_Q', T=50.0, F=0.125333/
&RAMP ID='3.75 MW 01_RAMP_Q', T=55.0, F=0.151653/
&RAMP ID='3.75 MW 01_RAMP_Q', T=60.0, F=0.18048/
&RAMP ID='3.75 MW 01_RAMP_Q', T=65.0, F=0.211813/
&RAMP ID='3.75 MW 01_RAMP_Q', T=70.0, F=0.245653/
&RAMP ID='3.75 MW 01_RAMP_Q', T=75.0, F=0.282/
&RAMP ID='3.75 MW 01_RAMP_Q', T=80.0, F=0.320853/
&RAMP ID='3.75 MW 01_RAMP_Q', T=85.0, F=0.362213/
&RAMP ID='3.75 MW 01_RAMP_Q', T=90.0, F=0.40608/
&RAMP ID='3.75 MW 01_RAMP_Q', T=95.0, F=0.452453/
&RAMP ID='3.75 MW 01_RAMP_Q', T=100.0, F=0.501333/
&RAMP ID='3.75 MW 01_RAMP_Q', T=105.0, F=0.55272/
&RAMP ID='3.75 MW 01_RAMP_Q', T=110.0, F=0.606613/
&RAMP ID='3.75 MW 01_RAMP_Q', T=115.0, F=0.663013/
&RAMP ID='3.75 MW 01_RAMP_Q', T=120.0, F=0.72192/
&RAMP ID='3.75 MW 01_RAMP_Q', T=125.0, F=0.783333/
&RAMP ID='3.75 MW 01_RAMP_Q', T=130.0, F=0.847253/
&RAMP ID='3.75 MW 01_RAMP_Q', T=135.0, F=0.91368/
&RAMP ID='3.75 MW 01_RAMP_Q', T=140.0, F=0.982613/
&RAMP ID='3.75 MW 01_RAMP_Q', T=141.0, F=0.996701/
&RAMP ID='3.75 MW 01_RAMP_Q', T=145.0, F=1.0/
&RAMP ID='3.75 MW 01_RAMP_Q', T=150.0, F=1.0/
&RAMP ID='3.75 MW 01_RAMP_Q', T=155.0, F=1.0/
&RAMP ID='3.75 MW 01_RAMP_Q', T=160.0, F=1.0/
&RAMP ID='3.75 MW 01_RAMP_Q', T=165.0, F=1.0/
&RAMP ID='3.75 MW 01_RAMP_Q', T=170.0, F=1.0/
&RAMP ID='3.75 MW 01_RAMP_Q', T=175.0, F=1.0/
&RAMP ID='3.75 MW 01_RAMP_Q', T=180.0, F=1.0/
&RAMP ID='3.75 MW 01_RAMP_Q', T=185.0, F=1.0/
&RAMP ID='3.75 MW 01_RAMP_Q', T=190.0, F=1.0/
&RAMP ID='3.75 MW 01_RAMP_Q', T=195.0, F=1.0/
&RAMP ID='3.75 MW 01_RAMP_Q', T=200.0, F=1.0/
&RAMP ID='3.75 MW 01_RAMP_Q', T=205.0, F=1.0/
&RAMP ID='3.75 MW 01_RAMP_Q', T=210.0, F=1.0/
&RAMP ID='3.75 MW 01_RAMP_Q', T=215.0, F=1.0/
&RAMP ID='3.75 MW 01_RAMP_Q', T=220.0, F=1.0/
&RAMP ID='3.75 MW 01_RAMP_Q', T=225.0, F=1.0/
&RAMP ID='3.75 MW 01_RAMP_Q', T=230.0, F=1.0/
&RAMP ID='3.75 MW 01_RAMP_Q', T=235.0, F=1.0/
&RAMP ID='3.75 MW 01_RAMP_Q', T=240.0, F=1.0/
&RAMP ID='3.75 MW 01_RAMP_Q', T=245.0, F=1.0/
&RAMP ID='3.75 MW 01_RAMP_Q', T=250.0, F=1.0/
&RAMP ID='3.75 MW 01_RAMP_Q', T=255.0, F=1.0/
&RAMP ID='3.75 MW 01_RAMP_Q', T=260.0, F=1.0/
&RAMP ID='3.75 MW 01_RAMP_Q', T=265.0, F=1.0/
&RAMP ID='3.75 MW 01_RAMP_Q', T=270.0, F=1.0/
&RAMP ID='3.75 MW 01_RAMP_Q', T=275.0, F=1.0/
&RAMP ID='3.75 MW 01_RAMP_Q', T=280.0, F=1.0/
&RAMP ID='3.75 MW 01_RAMP_Q', T=285.0, F=1.0/
&RAMP ID='3.75 MW 01_RAMP_Q', T=290.0, F=1.0/
&RAMP ID='3.75 MW 01_RAMP_Q', T=295.0, F=1.0/
&RAMP ID='3.75 MW 01_RAMP_Q', T=300.0, F=1.0/
&RAMP ID='3.75 MW 01_RAMP_Q', T=305.0, F=1.0/
&RAMP ID='3.75 MW 01_RAMP_Q', T=310.0, F=1.0/
&RAMP ID='3.75 MW 01_RAMP_Q', T=315.0, F=1.0/
&RAMP ID='3.75 MW 01_RAMP_Q', T=320.0, F=1.0/
&RAMP ID='3.75 MW 01_RAMP_Q', T=325.0, F=1.0/
&RAMP ID='3.75 MW 01_RAMP_Q', T=330.0, F=1.0/
&RAMP ID='3.75 MW 01_RAMP_Q', T=335.0, F=1.0/
&RAMP ID='3.75 MW 01_RAMP_Q', T=340.0, F=1.0/
&RAMP ID='3.75 MW 01_RAMP_Q', T=345.0, F=1.0/
&RAMP ID='3.75 MW 01_RAMP_Q', T=350.0, F=1.0/
&RAMP ID='3.75 MW 01_RAMP_Q', T=355.0, F=1.0/
&RAMP ID='3.75 MW 01_RAMP_Q', T=360.0, F=1.0/
&RAMP ID='3.75 MW 01_RAMP_Q', T=365.0, F=1.0/
&RAMP ID='3.75 MW 01_RAMP_Q', T=370.0, F=1.0/
&RAMP ID='3.75 MW 01_RAMP_Q', T=375.0, F=1.0/
&RAMP ID='3.75 MW 01_RAMP_Q', T=380.0, F=1.0/
&RAMP ID='3.75 MW 01_RAMP_Q', T=385.0, F=1.0/
&RAMP ID='3.75 MW 01_RAMP_Q', T=390.0, F=1.0/
&RAMP ID='3.75 MW 01_RAMP_Q', T=395.0, F=1.0/
&RAMP ID='3.75 MW 01_RAMP_Q', T=400.0, F=1.0/
&RAMP ID='3.75 MW 01_RAMP_Q', T=405.0, F=1.0/
&RAMP ID='3.75 MW 01_RAMP_Q', T=410.0, F=1.0/
&RAMP ID='3.75 MW 01_RAMP_Q', T=415.0, F=1.0/
&RAMP ID='3.75 MW 01_RAMP_Q', T=420.0, F=1.0/
&RAMP ID='3.75 MW 01_RAMP_Q', T=425.0, F=1.0/
&RAMP ID='3.75 MW 01_RAMP_Q', T=430.0, F=1.0/
&RAMP ID='3.75 MW 01_RAMP_Q', T=435.0, F=1.0/
&RAMP ID='3.75 MW 01_RAMP_Q', T=440.0, F=1.0/
&RAMP ID='3.75 MW 01_RAMP_Q', T=445.0, F=1.0/
&RAMP ID='3.75 MW 01_RAMP_Q', T=450.0, F=1.0/
&RAMP ID='3.75 MW 01_RAMP_Q', T=455.0, F=1.0/
&RAMP ID='3.75 MW 01_RAMP_Q', T=460.0, F=1.0/
&RAMP ID='3.75 MW 01_RAMP_Q', T=465.0, F=1.0/
&RAMP ID='3.75 MW 01_RAMP_Q', T=470.0, F=1.0/
&RAMP ID='3.75 MW 01_RAMP_Q', T=475.0, F=1.0/
&RAMP ID='3.75 MW 01_RAMP_Q', T=480.0, F=1.0/
&RAMP ID='3.75 MW 01_RAMP_Q', T=485.0, F=1.0/
&RAMP ID='3.75 MW 01_RAMP_Q', T=490.0, F=1.0/
&RAMP ID='3.75 MW 01_RAMP_Q', T=495.0, F=1.0/
&RAMP ID='3.75 MW 01_RAMP_Q', T=500.0, F=1.0/
&RAMP ID='3.75 MW 01_RAMP_Q', T=505.0, F=1.0/
&RAMP ID='3.75 MW 01_RAMP_Q', T=510.0, F=1.0/
&RAMP ID='3.75 MW 01_RAMP_Q', T=515.0, F=1.0/
&RAMP ID='3.75 MW 01_RAMP_Q', T=520.0, F=1.0/
&RAMP ID='3.75 MW 01_RAMP_Q', T=525.0, F=1.0/
&RAMP ID='3.75 MW 01_RAMP_Q', T=530.0, F=1.0/
&RAMP ID='3.75 MW 01_RAMP_Q', T=535.0, F=1.0/
&RAMP ID='3.75 MW 01_RAMP_Q', T=540.0, F=1.0/
&RAMP ID='3.75 MW 01_RAMP_Q', T=545.0, F=1.0/
&RAMP ID='3.75 MW 01_RAMP_Q', T=550.0, F=1.0/
&RAMP ID='3.75 MW 01_RAMP_Q', T=555.0, F=1.0/
&RAMP ID='3.75 MW 01_RAMP_Q', T=560.0, F=1.0/
&RAMP ID='3.75 MW 01_RAMP_Q', T=565.0, F=1.0/
&RAMP ID='3.75 MW 01_RAMP_Q', T=570.0, F=1.0/
&RAMP ID='3.75 MW 01_RAMP_Q', T=575.0, F=1.0/
&RAMP ID='3.75 MW 01_RAMP_Q', T=580.0, F=1.0/
&RAMP ID='3.75 MW 01_RAMP_Q', T=585.0, F=1.0/
&RAMP ID='3.75 MW 01_RAMP_Q', T=590.0, F=1.0/
&RAMP ID='3.75 MW 01_RAMP_Q', T=595.0, F=1.0/
&RAMP ID='3.75 MW 01_RAMP_Q', T=600.0, F=1.0/
&RAMP ID='3.75 MW 01_RAMP_Q', T=605.0, F=1.0/
&RAMP ID='3.75 MW 01_RAMP_Q', T=610.0, F=1.0/
&RAMP ID='3.75 MW 01_RAMP_Q', T=615.0, F=1.0/
&RAMP ID='3.75 MW 01_RAMP_Q', T=620.0, F=1.0/
&RAMP ID='3.75 MW 01_RAMP_Q', T=625.0, F=1.0/
&RAMP ID='3.75 MW 01_RAMP_Q', T=630.0, F=1.0/
&RAMP ID='3.75 MW 01_RAMP_Q', T=635.0, F=1.0/
&RAMP ID='3.75 MW 01_RAMP_Q', T=640.0, F=1.0/
&RAMP ID='3.75 MW 01_RAMP_Q', T=645.0, F=1.0/
&RAMP ID='3.75 MW 01_RAMP_Q', T=650.0, F=1.0/
&RAMP ID='3.75 MW 01_RAMP_Q', T=655.0, F=1.0/
&RAMP ID='3.75 MW 01_RAMP_Q', T=660.0, F=1.0/
&RAMP ID='3.75 MW 01_RAMP_Q', T=665.0, F=1.0/
&RAMP ID='3.75 MW 01_RAMP_Q', T=670.0, F=1.0/
&RAMP ID='3.75 MW 01_RAMP_Q', T=675.0, F=1.0/
&RAMP ID='3.75 MW 01_RAMP_Q', T=680.0, F=1.0/
&RAMP ID='3.75 MW 01_RAMP_Q', T=685.0, F=1.0/
&RAMP ID='3.75 MW 01_RAMP_Q', T=690.0, F=1.0/
&RAMP ID='3.75 MW 01_RAMP_Q', T=695.0, F=1.0/
&RAMP ID='3.75 MW 01_RAMP_Q', T=700.0, F=1.0/
&RAMP ID='3.75 MW 01_RAMP_Q', T=705.0, F=1.0/
&RAMP ID='3.75 MW 01_RAMP_Q', T=710.0, F=1.0/
&RAMP ID='3.75 MW 01_RAMP_Q', T=715.0, F=1.0/
&RAMP ID='3.75 MW 01_RAMP_Q', T=720.0, F=1.0/
&RAMP ID='3.75 MW 01_RAMP_Q', T=725.0, F=1.0/
&RAMP ID='3.75 MW 01_RAMP_Q', T=730.0, F=1.0/
&RAMP ID='3.75 MW 01_RAMP_Q', T=735.0, F=1.0/
&RAMP ID='3.75 MW 01_RAMP_Q', T=740.0, F=1.0/
&RAMP ID='3.75 MW 01_RAMP_Q', T=745.0, F=1.0/
&RAMP ID='3.75 MW 01_RAMP_Q', T=750.0, F=1.0/
&RAMP ID='3.75 MW 01_RAMP_Q', T=755.0, F=1.0/
&RAMP ID='3.75 MW 01_RAMP_Q', T=760.0, F=1.0/
&RAMP ID='3.75 MW 01_RAMP_Q', T=765.0, F=1.0/
&RAMP ID='3.75 MW 01_RAMP_Q', T=770.0, F=1.0/
&RAMP ID='3.75 MW 01_RAMP_Q', T=775.0, F=1.0/
&RAMP ID='3.75 MW 01_RAMP_Q', T=780.0, F=1.0/
&RAMP ID='3.75 MW 01_RAMP_Q', T=785.0, F=1.0/
&RAMP ID='3.75 MW 01_RAMP_Q', T=790.0, F=1.0/
&RAMP ID='3.75 MW 01_RAMP_Q', T=795.0, F=1.0/
&RAMP ID='3.75 MW 01_RAMP_Q', T=800.0, F=1.0/
&RAMP ID='3.75 MW 01_RAMP_Q', T=805.0, F=1.0/
&RAMP ID='3.75 MW 01_RAMP_Q', T=810.0, F=1.0/
&RAMP ID='3.75 MW 01_RAMP_Q', T=815.0, F=1.0/
&RAMP ID='3.75 MW 01_RAMP_Q', T=820.0, F=1.0/
&RAMP ID='3.75 MW 01_RAMP_Q', T=825.0, F=1.0/
&RAMP ID='3.75 MW 01_RAMP_Q', T=830.0, F=1.0/
&RAMP ID='3.75 MW 01_RAMP_Q', T=835.0, F=1.0/
&RAMP ID='3.75 MW 01_RAMP_Q', T=840.0, F=1.0/
&RAMP ID='3.75 MW 01_RAMP_Q', T=845.0, F=1.0/
&RAMP ID='3.75 MW 01_RAMP_Q', T=850.0, F=1.0/
&RAMP ID='3.75 MW 01_RAMP_Q', T=855.0, F=1.0/
&RAMP ID='3.75 MW 01_RAMP_Q', T=860.0, F=1.0/
&RAMP ID='3.75 MW 01_RAMP_Q', T=865.0, F=1.0/
&RAMP ID='3.75 MW 01_RAMP_Q', T=870.0, F=1.0/
&RAMP ID='3.75 MW 01_RAMP_Q', T=875.0, F=1.0/
&RAMP ID='3.75 MW 01_RAMP_Q', T=880.0, F=1.0/
&RAMP ID='3.75 MW 01_RAMP_Q', T=885.0, F=1.0/
&RAMP ID='3.75 MW 01_RAMP_Q', T=890.0, F=1.0/
&RAMP ID='3.75 MW 01_RAMP_Q', T=895.0, F=1.0/
&RAMP ID='3.75 MW 01_RAMP_Q', T=900.0, F=1.0/
&SURF ID='3.75 MW 02',
      COLOR='RED',
      HRRPUA=937.5,
      RAMP_Q='3.75 MW 02_RAMP_Q',
      TMP_FRONT=300.0/
&RAMP ID='3.75 MW 02_RAMP_Q', T=0.0, F=0.0/
&RAMP ID='3.75 MW 02_RAMP_Q', T=5.0, F=0.0/
&RAMP ID='3.75 MW 02_RAMP_Q', T=10.0, F=0.0/
&RAMP ID='3.75 MW 02_RAMP_Q', T=15.0, F=0.0/
&RAMP ID='3.75 MW 02_RAMP_Q', T=20.0, F=0.0/
&RAMP ID='3.75 MW 02_RAMP_Q', T=25.0, F=0.0/
&RAMP ID='3.75 MW 02_RAMP_Q', T=30.0, F=0.0/
&RAMP ID='3.75 MW 02_RAMP_Q', T=35.0, F=0.0/
&RAMP ID='3.75 MW 02_RAMP_Q', T=40.0, F=0.0/
&RAMP ID='3.75 MW 02_RAMP_Q', T=45.0, F=0.0/
&RAMP ID='3.75 MW 02_RAMP_Q', T=50.0, F=0.0/
&RAMP ID='3.75 MW 02_RAMP_Q', T=55.0, F=0.0/
&RAMP ID='3.75 MW 02_RAMP_Q', T=60.0, F=0.0/
&RAMP ID='3.75 MW 02_RAMP_Q', T=65.0, F=0.0/
&RAMP ID='3.75 MW 02_RAMP_Q', T=70.0, F=0.0/
&RAMP ID='3.75 MW 02_RAMP_Q', T=75.0, F=0.0/
&RAMP ID='3.75 MW 02_RAMP_Q', T=80.0, F=0.0/
&RAMP ID='3.75 MW 02_RAMP_Q', T=85.0, F=0.0/
&RAMP ID='3.75 MW 02_RAMP_Q', T=90.0, F=0.0/
&RAMP ID='3.75 MW 02_RAMP_Q', T=95.0, F=0.0/
&RAMP ID='3.75 MW 02_RAMP_Q', T=100.0, F=0.0/
&RAMP ID='3.75 MW 02_RAMP_Q', T=105.0, F=0.0/
&RAMP ID='3.75 MW 02_RAMP_Q', T=110.0, F=0.0/
&RAMP ID='3.75 MW 02_RAMP_Q', T=115.0, F=0.0/
&RAMP ID='3.75 MW 02_RAMP_Q', T=120.0, F=0.0/
&RAMP ID='3.75 MW 02_RAMP_Q', T=125.0, F=0.0/
&RAMP ID='3.75 MW 02_RAMP_Q', T=130.0, F=0.0/
&RAMP ID='3.75 MW 02_RAMP_Q', T=135.0, F=0.0/
&RAMP ID='3.75 MW 02_RAMP_Q', T=140.0, F=0.0/
&RAMP ID='3.75 MW 02_RAMP_Q', T=141.1, F=0.0/
&RAMP ID='3.75 MW 02_RAMP_Q', T=145.0, F=0.054053/
&RAMP ID='3.75 MW 02_RAMP_Q', T=150.0, F=0.128/
&RAMP ID='3.75 MW 02_RAMP_Q', T=155.0, F=0.204453/
&RAMP ID='3.75 MW 02_RAMP_Q', T=160.0, F=0.283413/
&RAMP ID='3.75 MW 02_RAMP_Q', T=165.0, F=0.36488/
&RAMP ID='3.75 MW 02_RAMP_Q', T=170.0, F=0.448853/
&RAMP ID='3.75 MW 02_RAMP_Q', T=175.0, F=0.535333/
&RAMP ID='3.75 MW 02_RAMP_Q', T=180.0, F=0.62432/
&RAMP ID='3.75 MW 02_RAMP_Q', T=185.0, F=0.715813/
&RAMP ID='3.75 MW 02_RAMP_Q', T=190.0, F=0.809813/
&RAMP ID='3.75 MW 02_RAMP_Q', T=195.0, F=0.90632/
&RAMP ID='3.75 MW 02_RAMP_Q', T=200.0, F=1.0/
&RAMP ID='3.75 MW 02_RAMP_Q', T=202.4, F=1.0/
&RAMP ID='3.75 MW 02_RAMP_Q', T=205.0, F=1.0/
&RAMP ID='3.75 MW 02_RAMP_Q', T=210.0, F=1.0/
&RAMP ID='3.75 MW 02_RAMP_Q', T=215.0, F=1.0/
&RAMP ID='3.75 MW 02_RAMP_Q', T=220.0, F=1.0/
&RAMP ID='3.75 MW 02_RAMP_Q', T=225.0, F=1.0/
&RAMP ID='3.75 MW 02_RAMP_Q', T=230.0, F=1.0/
&RAMP ID='3.75 MW 02_RAMP_Q', T=235.0, F=1.0/
&RAMP ID='3.75 MW 02_RAMP_Q', T=240.0, F=1.0/
&RAMP ID='3.75 MW 02_RAMP_Q', T=245.0, F=1.0/
&RAMP ID='3.75 MW 02_RAMP_Q', T=250.0, F=1.0/
&RAMP ID='3.75 MW 02_RAMP_Q', T=255.0, F=1.0/
&RAMP ID='3.75 MW 02_RAMP_Q', T=260.0, F=1.0/
&RAMP ID='3.75 MW 02_RAMP_Q', T=265.0, F=1.0/
&RAMP ID='3.75 MW 02_RAMP_Q', T=270.0, F=1.0/
&RAMP ID='3.75 MW 02_RAMP_Q', T=275.0, F=1.0/
&RAMP ID='3.75 MW 02_RAMP_Q', T=280.0, F=1.0/
&RAMP ID='3.75 MW 02_RAMP_Q', T=285.0, F=1.0/
&RAMP ID='3.75 MW 02_RAMP_Q', T=290.0, F=1.0/
&RAMP ID='3.75 MW 02_RAMP_Q', T=295.0, F=1.0/
&RAMP ID='3.75 MW 02_RAMP_Q', T=300.0, F=1.0/
&RAMP ID='3.75 MW 02_RAMP_Q', T=305.0, F=1.0/
&RAMP ID='3.75 MW 02_RAMP_Q', T=310.0, F=1.0/
&RAMP ID='3.75 MW 02_RAMP_Q', T=315.0, F=1.0/
&RAMP ID='3.75 MW 02_RAMP_Q', T=320.0, F=1.0/
&RAMP ID='3.75 MW 02_RAMP_Q', T=325.0, F=1.0/
&RAMP ID='3.75 MW 02_RAMP_Q', T=330.0, F=1.0/
&RAMP ID='3.75 MW 02_RAMP_Q', T=335.0, F=1.0/
&RAMP ID='3.75 MW 02_RAMP_Q', T=340.0, F=1.0/
&RAMP ID='3.75 MW 02_RAMP_Q', T=345.0, F=1.0/
&RAMP ID='3.75 MW 02_RAMP_Q', T=350.0, F=1.0/
&RAMP ID='3.75 MW 02_RAMP_Q', T=355.0, F=1.0/
&RAMP ID='3.75 MW 02_RAMP_Q', T=360.0, F=1.0/
&RAMP ID='3.75 MW 02_RAMP_Q', T=365.0, F=1.0/
&RAMP ID='3.75 MW 02_RAMP_Q', T=370.0, F=1.0/
&RAMP ID='3.75 MW 02_RAMP_Q', T=375.0, F=1.0/
&RAMP ID='3.75 MW 02_RAMP_Q', T=380.0, F=1.0/
&RAMP ID='3.75 MW 02_RAMP_Q', T=385.0, F=1.0/
&RAMP ID='3.75 MW 02_RAMP_Q', T=390.0, F=1.0/
&RAMP ID='3.75 MW 02_RAMP_Q', T=395.0, F=1.0/
&RAMP ID='3.75 MW 02_RAMP_Q', T=400.0, F=1.0/
&RAMP ID='3.75 MW 02_RAMP_Q', T=405.0, F=1.0/
&RAMP ID='3.75 MW 02_RAMP_Q', T=410.0, F=1.0/
&RAMP ID='3.75 MW 02_RAMP_Q', T=415.0, F=1.0/
&RAMP ID='3.75 MW 02_RAMP_Q', T=420.0, F=1.0/
&RAMP ID='3.75 MW 02_RAMP_Q', T=425.0, F=1.0/
&RAMP ID='3.75 MW 02_RAMP_Q', T=430.0, F=1.0/
&RAMP ID='3.75 MW 02_RAMP_Q', T=435.0, F=1.0/
&RAMP ID='3.75 MW 02_RAMP_Q', T=440.0, F=1.0/
&RAMP ID='3.75 MW 02_RAMP_Q', T=445.0, F=1.0/
&RAMP ID='3.75 MW 02_RAMP_Q', T=450.0, F=1.0/
&RAMP ID='3.75 MW 02_RAMP_Q', T=455.0, F=1.0/
&RAMP ID='3.75 MW 02_RAMP_Q', T=460.0, F=1.0/
&RAMP ID='3.75 MW 02_RAMP_Q', T=465.0, F=1.0/
&RAMP ID='3.75 MW 02_RAMP_Q', T=470.0, F=1.0/
&RAMP ID='3.75 MW 02_RAMP_Q', T=475.0, F=1.0/
&RAMP ID='3.75 MW 02_RAMP_Q', T=480.0, F=1.0/
&RAMP ID='3.75 MW 02_RAMP_Q', T=485.0, F=1.0/
&RAMP ID='3.75 MW 02_RAMP_Q', T=490.0, F=1.0/
&RAMP ID='3.75 MW 02_RAMP_Q', T=495.0, F=1.0/
&RAMP ID='3.75 MW 02_RAMP_Q', T=500.0, F=1.0/
&RAMP ID='3.75 MW 02_RAMP_Q', T=505.0, F=1.0/
&RAMP ID='3.75 MW 02_RAMP_Q', T=510.0, F=1.0/
&RAMP ID='3.75 MW 02_RAMP_Q', T=515.0, F=1.0/
&RAMP ID='3.75 MW 02_RAMP_Q', T=520.0, F=1.0/
&RAMP ID='3.75 MW 02_RAMP_Q', T=525.0, F=1.0/
&RAMP ID='3.75 MW 02_RAMP_Q', T=530.0, F=1.0/
&RAMP ID='3.75 MW 02_RAMP_Q', T=535.0, F=1.0/
&RAMP ID='3.75 MW 02_RAMP_Q', T=540.0, F=1.0/
&RAMP ID='3.75 MW 02_RAMP_Q', T=545.0, F=1.0/
&RAMP ID='3.75 MW 02_RAMP_Q', T=550.0, F=1.0/
&RAMP ID='3.75 MW 02_RAMP_Q', T=555.0, F=1.0/
&RAMP ID='3.75 MW 02_RAMP_Q', T=560.0, F=1.0/
&RAMP ID='3.75 MW 02_RAMP_Q', T=565.0, F=1.0/
&RAMP ID='3.75 MW 02_RAMP_Q', T=570.0, F=1.0/
&RAMP ID='3.75 MW 02_RAMP_Q', T=575.0, F=1.0/
&RAMP ID='3.75 MW 02_RAMP_Q', T=580.0, F=1.0/
&RAMP ID='3.75 MW 02_RAMP_Q', T=585.0, F=1.0/
&RAMP ID='3.75 MW 02_RAMP_Q', T=590.0, F=1.0/
&RAMP ID='3.75 MW 02_RAMP_Q', T=595.0, F=1.0/
&RAMP ID='3.75 MW 02_RAMP_Q', T=600.0, F=1.0/
&RAMP ID='3.75 MW 02_RAMP_Q', T=605.0, F=1.0/
&RAMP ID='3.75 MW 02_RAMP_Q', T=610.0, F=1.0/
&RAMP ID='3.75 MW 02_RAMP_Q', T=615.0, F=1.0/
&RAMP ID='3.75 MW 02_RAMP_Q', T=620.0, F=1.0/
&RAMP ID='3.75 MW 02_RAMP_Q', T=625.0, F=1.0/
&RAMP ID='3.75 MW 02_RAMP_Q', T=630.0, F=1.0/
&RAMP ID='3.75 MW 02_RAMP_Q', T=635.0, F=1.0/
&RAMP ID='3.75 MW 02_RAMP_Q', T=640.0, F=1.0/
&RAMP ID='3.75 MW 02_RAMP_Q', T=645.0, F=1.0/
&RAMP ID='3.75 MW 02_RAMP_Q', T=650.0, F=1.0/
&RAMP ID='3.75 MW 02_RAMP_Q', T=655.0, F=1.0/
&RAMP ID='3.75 MW 02_RAMP_Q', T=660.0, F=1.0/
&RAMP ID='3.75 MW 02_RAMP_Q', T=665.0, F=1.0/
&RAMP ID='3.75 MW 02_RAMP_Q', T=670.0, F=1.0/
&RAMP ID='3.75 MW 02_RAMP_Q', T=675.0, F=1.0/
&RAMP ID='3.75 MW 02_RAMP_Q', T=680.0, F=1.0/
&RAMP ID='3.75 MW 02_RAMP_Q', T=685.0, F=1.0/
&RAMP ID='3.75 MW 02_RAMP_Q', T=690.0, F=1.0/
&RAMP ID='3.75 MW 02_RAMP_Q', T=695.0, F=1.0/
&RAMP ID='3.75 MW 02_RAMP_Q', T=700.0, F=1.0/
&RAMP ID='3.75 MW 02_RAMP_Q', T=705.0, F=1.0/
&RAMP ID='3.75 MW 02_RAMP_Q', T=710.0, F=1.0/
&RAMP ID='3.75 MW 02_RAMP_Q', T=715.0, F=1.0/
&RAMP ID='3.75 MW 02_RAMP_Q', T=720.0, F=1.0/
&RAMP ID='3.75 MW 02_RAMP_Q', T=725.0, F=1.0/
&RAMP ID='3.75 MW 02_RAMP_Q', T=730.0, F=1.0/
&RAMP ID='3.75 MW 02_RAMP_Q', T=735.0, F=1.0/
&RAMP ID='3.75 MW 02_RAMP_Q', T=740.0, F=1.0/
&RAMP ID='3.75 MW 02_RAMP_Q', T=745.0, F=1.0/
&RAMP ID='3.75 MW 02_RAMP_Q', T=750.0, F=1.0/
&RAMP ID='3.75 MW 02_RAMP_Q', T=755.0, F=1.0/
&RAMP ID='3.75 MW 02_RAMP_Q', T=760.0, F=1.0/
&RAMP ID='3.75 MW 02_RAMP_Q', T=765.0, F=1.0/
&RAMP ID='3.75 MW 02_RAMP_Q', T=770.0, F=1.0/
&RAMP ID='3.75 MW 02_RAMP_Q', T=775.0, F=1.0/
&RAMP ID='3.75 MW 02_RAMP_Q', T=780.0, F=1.0/
&RAMP ID='3.75 MW 02_RAMP_Q', T=785.0, F=1.0/
&RAMP ID='3.75 MW 02_RAMP_Q', T=790.0, F=1.0/
&RAMP ID='3.75 MW 02_RAMP_Q', T=795.0, F=1.0/
&RAMP ID='3.75 MW 02_RAMP_Q', T=800.0, F=1.0/
&RAMP ID='3.75 MW 02_RAMP_Q', T=805.0, F=1.0/
&RAMP ID='3.75 MW 02_RAMP_Q', T=810.0, F=1.0/
&RAMP ID='3.75 MW 02_RAMP_Q', T=815.0, F=1.0/
&RAMP ID='3.75 MW 02_RAMP_Q', T=820.0, F=1.0/
&RAMP ID='3.75 MW 02_RAMP_Q', T=825.0, F=1.0/
&RAMP ID='3.75 MW 02_RAMP_Q', T=830.0, F=1.0/
&RAMP ID='3.75 MW 02_RAMP_Q', T=835.0, F=1.0/
&RAMP ID='3.75 MW 02_RAMP_Q', T=840.0, F=1.0/
&RAMP ID='3.75 MW 02_RAMP_Q', T=845.0, F=1.0/
&RAMP ID='3.75 MW 02_RAMP_Q', T=850.0, F=1.0/
&RAMP ID='3.75 MW 02_RAMP_Q', T=855.0, F=1.0/
&RAMP ID='3.75 MW 02_RAMP_Q', T=860.0, F=1.0/
&RAMP ID='3.75 MW 02_RAMP_Q', T=865.0, F=1.0/
&RAMP ID='3.75 MW 02_RAMP_Q', T=870.0, F=1.0/
&RAMP ID='3.75 MW 02_RAMP_Q', T=875.0, F=1.0/
&RAMP ID='3.75 MW 02_RAMP_Q', T=880.0, F=1.0/
&RAMP ID='3.75 MW 02_RAMP_Q', T=885.0, F=1.0/
&RAMP ID='3.75 MW 02_RAMP_Q', T=890.0, F=1.0/
&RAMP ID='3.75 MW 02_RAMP_Q', T=895.0, F=1.0/
&RAMP ID='3.75 MW 02_RAMP_Q', T=900.0, F=1.0/
&SURF ID='3.75 MW 03',
      COLOR='RED',
      HRRPUA=937.5,
      RAMP_Q='3.75 MW 03_RAMP_Q',
      TMP_FRONT=300.0/
&RAMP ID='3.75 MW 03_RAMP_Q', T=0.0, F=0.0/
&RAMP ID='3.75 MW 03_RAMP_Q', T=5.0, F=0.0/
&RAMP ID='3.75 MW 03_RAMP_Q', T=10.0, F=0.0/
&RAMP ID='3.75 MW 03_RAMP_Q', T=15.0, F=0.0/
&RAMP ID='3.75 MW 03_RAMP_Q', T=20.0, F=0.0/
&RAMP ID='3.75 MW 03_RAMP_Q', T=25.0, F=0.0/
&RAMP ID='3.75 MW 03_RAMP_Q', T=30.0, F=0.0/
&RAMP ID='3.75 MW 03_RAMP_Q', T=35.0, F=0.0/
&RAMP ID='3.75 MW 03_RAMP_Q', T=40.0, F=0.0/
&RAMP ID='3.75 MW 03_RAMP_Q', T=45.0, F=0.0/
&RAMP ID='3.75 MW 03_RAMP_Q', T=50.0, F=0.0/
&RAMP ID='3.75 MW 03_RAMP_Q', T=55.0, F=0.0/
&RAMP ID='3.75 MW 03_RAMP_Q', T=60.0, F=0.0/
&RAMP ID='3.75 MW 03_RAMP_Q', T=65.0, F=0.0/
&RAMP ID='3.75 MW 03_RAMP_Q', T=70.0, F=0.0/
&RAMP ID='3.75 MW 03_RAMP_Q', T=75.0, F=0.0/
&RAMP ID='3.75 MW 03_RAMP_Q', T=80.0, F=0.0/
&RAMP ID='3.75 MW 03_RAMP_Q', T=85.0, F=0.0/
&RAMP ID='3.75 MW 03_RAMP_Q', T=90.0, F=0.0/
&RAMP ID='3.75 MW 03_RAMP_Q', T=95.0, F=0.0/
&RAMP ID='3.75 MW 03_RAMP_Q', T=100.0, F=0.0/
&RAMP ID='3.75 MW 03_RAMP_Q', T=105.0, F=0.0/
&RAMP ID='3.75 MW 03_RAMP_Q', T=110.0, F=0.0/
&RAMP ID='3.75 MW 03_RAMP_Q', T=115.0, F=0.0/