NTU_Sc_2.fds
Generated by PyroSim - Version 2021.1.0224
01-Apr-2021 18:03:40

&HEAD CHID='NTU_Sc_2'/
&TIME T_END=1200.0/
&DUMP DT_PL3D=30.0, DT_RESTART=300.0, NFRAMES=600, WRITE_XYZ=.TRUE., PLOT3D_QUANTITY='HRRPUV','PRESSURE','TEMPERATURE','VELOCITY','VISIBILITY'/
&MISC SIMULATION_MODE='LES'/

&MESH ID='LF atrium mesh-b-merged-d', IJK=138,70,38, XB=35.6,49.4,30.0,37.0,67.2,71.0/
&MESH ID='LF atrium mesh-b-b', IJK=69,40,19, XB=35.6,49.4,22.0,30.0,67.2,71.0/
&MESH ID='LF atrium mesh-b-c-merged', IJK=69,75,29, XB=35.6,49.4,22.0,37.0,71.0,76.8/
&MESH ID='UP right of atrium', IJK=40,110,20, XB=49.4,57.4,22.0,44.0,70.8,74.8/
&MESH ID='UF left of atrium', FYI='Upper floor ', IJK=43,85,77, XB=27.0,35.6,22.0,39.0,59.6,75.0/
&MESH ID='LF atrium mesh-a-merged', IJK=69,75,76, XB=35.6,49.4,22.0,37.0,52.0,67.2/
&MESH ID='LF atrium mesh-a-merged-merged', IJK=64,75,40, XB=35.6,48.4,22.0,37.0,44.0,52.0/
&MESH ID='LF right of atrium - Fire scenario 1-merged-merged', IJK=46,90,40, XB=48.4,57.6,24.0,42.0,44.0,52.0/
&MESH ID='LF left of atrium', FYI='Lower floor left atrium', IJK=43,75,78, XB=27.0,35.6,22.0,37.0,44.0,59.6/

&SPEC ID='WATER VAPOR'/

&PART ID='Water02',
      SPEC_ID='WATER VAPOR',
      DIAMETER=800.0,
      MONODISPERSE=.TRUE.,
      AGE=10.0,
      SAMPLING_FACTOR=1/

&REAC ID='Upper level (Museum)',
      FUEL='REAC_FUEL',
      C=3.05,
      H=5.35,
      O=1.32,
      AUTO_IGNITION_TEMPERATURE=0.0,
      CO_YIELD=0.02,
      SOOT_YIELD=0.069,
      EPUMO2=1.209E4,
      IDEAL=.TRUE./

&RAMP ID='Doors_RAMP', T=-0.25, F=1.0/
&RAMP ID='Doors_RAMP', T=0.25, F=-1.0/
&RAMP ID='Doors_RAMP', T=120.75, F=-1.0/
&RAMP ID='Doors_RAMP', T=121.25, F=1.0/
&PROP ID='SFPE',
      QUANTITY='CHAMBER OBSCURATION',
      ACTIVATION_OBSCURATION=27.7,
      ALPHA_E=0.0,
      BETA_E=1.0,
      ALPHA_C=1.8,
      BETA_C=1.0/
&PROP ID='Generic Commercial Link02_Floor spray02',
      QUANTITY='SPRINKLER LINK TEMPERATURE',
      ACTIVATION_TEMPERATURE=68.0,
      RTI=50.0,
      PART_ID='Water02',
      OFFSET=0.2,
      K_FACTOR=80.0,
      OPERATING_PRESSURE=0.5,
      SPRAY_PATTERN_TABLE='Generic Commercial Link02_Floor spray02_SPRAY_PATTERN_TABLE'/
&TABL ID='Generic Commercial Link02_Floor spray02_SPRAY_PATTERN_TABLE', TABLE_DATA=0.0,2.95,0.1,359.9,4.66,0.0104/
&TABL ID='Generic Commercial Link02_Floor spray02_SPRAY_PATTERN_TABLE', TABLE_DATA=2.95,5.9,0.1,359.9,4.65,0.0109/
&TABL ID='Generic Commercial Link02_Floor spray02_SPRAY_PATTERN_TABLE', TABLE_DATA=5.9,8.85,0.1,359.9,4.63,0.0121/
&TABL ID='Generic Commercial Link02_Floor spray02_SPRAY_PATTERN_TABLE', TABLE_DATA=8.85,11.8,0.1,359.9,4.64,0.0135/
&TABL ID='Generic Commercial Link02_Floor spray02_SPRAY_PATTERN_TABLE', TABLE_DATA=11.8,14.75,0.1,359.9,4.68,0.0152/
&TABL ID='Generic Commercial Link02_Floor spray02_SPRAY_PATTERN_TABLE', TABLE_DATA=14.75,17.7,0.1,359.9,4.75,0.0166/
&TABL ID='Generic Commercial Link02_Floor spray02_SPRAY_PATTERN_TABLE', TABLE_DATA=17.7,20.65,0.1,359.9,4.8,0.0181/
&TABL ID='Generic Commercial Link02_Floor spray02_SPRAY_PATTERN_TABLE', TABLE_DATA=20.65,23.6,0.1,359.9,4.85,0.0207/
&TABL ID='Generic Commercial Link02_Floor spray02_SPRAY_PATTERN_TABLE', TABLE_DATA=23.6,26.55,0.1,359.9,4.91,0.0236/
&TABL ID='Generic Commercial Link02_Floor spray02_SPRAY_PATTERN_TABLE', TABLE_DATA=26.55,29.5,0.1,359.9,4.96,0.0267/
&TABL ID='Generic Commercial Link02_Floor spray02_SPRAY_PATTERN_TABLE', TABLE_DATA=29.5,32.45,0.1,359.9,5.07,0.0308/
&TABL ID='Generic Commercial Link02_Floor spray02_SPRAY_PATTERN_TABLE', TABLE_DATA=32.45,35.4,0.1,359.9,5.18,0.0382/
&TABL ID='Generic Commercial Link02_Floor spray02_SPRAY_PATTERN_TABLE', TABLE_DATA=35.4,38.35,0.1,359.9,5.31,0.0438/
&TABL ID='Generic Commercial Link02_Floor spray02_SPRAY_PATTERN_TABLE', TABLE_DATA=38.35,41.3,0.1,359.9,5.28,0.0488/
&TABL ID='Generic Commercial Link02_Floor spray02_SPRAY_PATTERN_TABLE', TABLE_DATA=41.3,44.25,0.1,359.9,5.33,0.0548/
&TABL ID='Generic Commercial Link02_Floor spray02_SPRAY_PATTERN_TABLE', TABLE_DATA=44.25,47.2,0.1,359.9,5.39,0.0592/
&TABL ID='Generic Commercial Link02_Floor spray02_SPRAY_PATTERN_TABLE', TABLE_DATA=47.2,50.15,0.1,359.9,5.44,0.0646/
&TABL ID='Generic Commercial Link02_Floor spray02_SPRAY_PATTERN_TABLE', TABLE_DATA=50.15,53.1,0.1,359.9,5.51,0.0675/
&TABL ID='Generic Commercial Link02_Floor spray02_SPRAY_PATTERN_TABLE', TABLE_DATA=53.1,56.05,0.1,359.9,5.64,0.0692/
&TABL ID='Generic Commercial Link02_Floor spray02_SPRAY_PATTERN_TABLE', TABLE_DATA=56.05,59.0,0.1,359.9,5.79,0.0701/
&TABL ID='Generic Commercial Link02_Floor spray02_SPRAY_PATTERN_TABLE', TABLE_DATA=59.0,61.95,0.1,359.9,5.96,0.0672/
&TABL ID='Generic Commercial Link02_Floor spray02_SPRAY_PATTERN_TABLE', TABLE_DATA=61.95,64.9,0.1,359.9,5.98,0.064/
&TABL ID='Generic Commercial Link02_Floor spray02_SPRAY_PATTERN_TABLE', TABLE_DATA=64.9,67.85,0.1,359.9,5.8,0.0585/
&TABL ID='Generic Commercial Link02_Floor spray02_SPRAY_PATTERN_TABLE', TABLE_DATA=67.85,70.8,0.1,359.9,5.35,0.0457/
&TABL ID='Generic Commercial Link02_Floor spray02_SPRAY_PATTERN_TABLE', TABLE_DATA=70.8,73.75,0.1,359.9,4.53,0.0267/
&TABL ID='Generic Commercial Link02_Floor spray02_SPRAY_PATTERN_TABLE', TABLE_DATA=73.75,76.7,0.1,359.9,3.53,0.01/
&TABL ID='Generic Commercial Link02_Floor spray02_SPRAY_PATTERN_TABLE', TABLE_DATA=76.7,79.65,0.1,359.9,2.63,3.9E-3/
&TABL ID='Generic Commercial Link02_Floor spray02_SPRAY_PATTERN_TABLE', TABLE_DATA=79.65,90.0,0.1,359.9,1.35,9.1E-3/
&CTRL ID='invert', FUNCTION_TYPE='ALL', LATCH=.FALSE., INITIAL_STATE=.TRUE., INPUT_ID='Doors'/
&CTRL ID='Doors', FUNCTION_TYPE='CUSTOM', RAMP_ID='Doors_RAMP', LATCH=.FALSE., INPUT_ID='TIME'/
&DEVC ID='Mechanical vent', QUANTITY='VOLUME FLOW', XB=40.8,43.2,29.4,30.8,75.4,75.4/
&DEVC ID='Kitchen door', QUANTITY='VOLUME FLOW', XB=57.6,57.6,32.8,33.6,44.4,46.6/
&DEVC ID='Atrium side door', QUANTITY='VOLUME FLOW', XB=55.0,55.0,30.8,32.2,44.4,46.6/
&DEVC ID='Atrium door', QUANTITY='VOLUME FLOW', XB=41.0,44.0,24.4,24.4,44.4,46.6/
&DEVC ID='SD06', PROP_ID='SFPE', XYZ=36.6,34.8,70.8/
&DEVC ID='SD07', PROP_ID='SFPE', XYZ=41.4,34.8,70.8/
&DEVC ID='SD08', PROP_ID='SFPE', XYZ=36.6,31.2,70.8/
&DEVC ID='SD10', PROP_ID='SFPE', XYZ=47.4,34.8,70.8/
&DEVC ID='SD11', PROP_ID='SFPE', XYZ=47.4,31.2,70.8/
&DEVC ID='sprinkler04', PROP_ID='Generic Commercial Link02_Floor spray02', XYZ=41.4,31.2,70.8/
&DEVC ID='sprinkler09', PROP_ID='Generic Commercial Link02_Floor spray02', XYZ=44.4,34.8,70.8/
&DEVC ID='sprinkler10', PROP_ID='Generic Commercial Link02_Floor spray02', XYZ=44.4,31.2,70.8/
&DEVC ID='sprinkler11', PROP_ID='Generic Commercial Link02_Floor spray02', XYZ=36.6,31.2,70.8/
&DEVC ID='sprinkler12', PROP_ID='Generic Commercial Link02_Floor spray02', XYZ=36.6,34.8,70.8/
&DEVC ID='TIME', QUANTITY='TIME', XYZ=35.6,30.0,67.2/

&MATL ID='CONCRETE',
      FYI='NBSIR 88-3752 - ATF NIST Multi-Floor Validation',
      SPECIFIC_HEAT=1.04,
      CONDUCTIVITY=1.8,
      DENSITY=2280.0/
&MATL ID='STEEL',
      FYI='Drysdale, Intro to Fire Dynamics - ATF NIST Multi-Floor Validation',
      SPECIFIC_HEAT=0.46,
      CONDUCTIVITY=45.8,
      DENSITY=7850.0,
      EMISSIVITY=0.95/
&MATL ID='GYPSUM PLASTER',
      FYI='Quintiere, Fire Behavior - NIST NRC Validation',
      SPECIFIC_HEAT=0.84,
      CONDUCTIVITY=0.48,
      DENSITY=1440.0/
&MATL ID='Glass',
      SPECIFIC_HEAT=0.84,
      CONDUCTIVITY=0.8,
      DENSITY=2500.0/

&SURF ID='ADIABATIC',
      COLOR='GRAY 80',
      DEFAULT=.TRUE.,
      ADIABATIC=.TRUE./
&SURF ID='Floor slab',
      BACKING='VOID',
      MATL_ID(1,1)='CONCRETE',
      MATL_MASS_FRACTION(1,1)=1.0,
      THICKNESS(1)=0.4/
&SURF ID='Stair',
      RGB=55,242,56,
      BACKING='VOID',
      MATL_ID(1,1)='STEEL',
      MATL_MASS_FRACTION(1,1)=1.0,
      THICKNESS(1)=0.2/
&SURF ID='Wall',
      RGB=255,102,0,
      BACKING='VOID',
      MATL_ID(1,1)='GYPSUM PLASTER',
      MATL_MASS_FRACTION(1,1)=1.0,
      THICKNESS(1)=0.2/
&SURF ID='Screen',
      FYI='To be decided.',
      RGB=127,221,255,
      BACKING='VOID',
      MATL_ID(1,1)='Glass',
      MATL_MASS_FRACTION(1,1)=1.0,
      THICKNESS(1)=0.1/
&SURF ID='Glazing',
      RGB=45,39,224,
      VOLUME_FLOW=0.0,
      HRRPUA=0.0/
&SURF ID='Mechanical vent top of stairs',
      RGB=26,128,26,
      VOLUME_FLOW=6.8,
      RAMP_V='Mechanical vent top of stairs_RAMP_V'/
&RAMP ID='Mechanical vent top of stairs_RAMP_V', T=0.0, F=0.0/
&RAMP ID='Mechanical vent top of stairs_RAMP_V', T=121.0, F=0.0/
&RAMP ID='Mechanical vent top of stairs_RAMP_V', T=151.0, F=1.0/
&RAMP ID='Mechanical vent top of stairs_RAMP_V', T=1200.0, F=1.0/
&SURF ID='Fire scenario 2-1',
      FYI='FS2 (08MW) Medium 500 kW/m2 ramp1',
      COLOR='RED',
      TEXTURE_MAP='psm_fire1.jpg',
      HRRPUA=500.0,
      RAMP_Q='Fire scenario 2-1_RAMP_Q',
      TMP_FRONT=300.0/
&RAMP ID='Fire scenario 2-1_RAMP_Q', T=0.0, F=0.0/
&RAMP ID='Fire scenario 2-1_RAMP_Q', T=32.33, F=0.05/
&RAMP ID='Fire scenario 2-1_RAMP_Q', T=45.72, F=0.1/
&RAMP ID='Fire scenario 2-1_RAMP_Q', T=56.0, F=0.15/
&RAMP ID='Fire scenario 2-1_RAMP_Q', T=64.66, F=0.2/
&RAMP ID='Fire scenario 2-1_RAMP_Q', T=72.29, F=0.25/
&RAMP ID='Fire scenario 2-1_RAMP_Q', T=79.19, F=0.3/
&RAMP ID='Fire scenario 2-1_RAMP_Q', T=85.54, F=0.35/
&RAMP ID='Fire scenario 2-1_RAMP_Q', T=91.44, F=0.4/
&RAMP ID='Fire scenario 2-1_RAMP_Q', T=96.99, F=0.45/
&RAMP ID='Fire scenario 2-1_RAMP_Q', T=102.24, F=0.5/
&RAMP ID='Fire scenario 2-1_RAMP_Q', T=107.23, F=0.55/
&RAMP ID='Fire scenario 2-1_RAMP_Q', T=111.99, F=0.6/
&RAMP ID='Fire scenario 2-1_RAMP_Q', T=116.57, F=0.65/
&RAMP ID='Fire scenario 2-1_RAMP_Q', T=120.97, F=0.7/
&RAMP ID='Fire scenario 2-1_RAMP_Q', T=125.21, F=0.75/
&RAMP ID='Fire scenario 2-1_RAMP_Q', T=129.32, F=0.8/
&RAMP ID='Fire scenario 2-1_RAMP_Q', T=133.3, F=0.85/
&RAMP ID='Fire scenario 2-1_RAMP_Q', T=137.16, F=0.9/
&RAMP ID='Fire scenario 2-1_RAMP_Q', T=140.92, F=0.95/
&RAMP ID='Fire scenario 2-1_RAMP_Q', T=144.58, F=1.0/
&RAMP ID='Fire scenario 2-1_RAMP_Q', T=1200.0, F=1.0/
&SURF ID='Fire scenario 2-2',
      FYI='FS2 (08MW) Medium 500 kW/m2 ramp2',
      COLOR='RED',
      TEXTURE_MAP='psm_fire2.jpg',
      HRRPUA=500.0,
      RAMP_Q='Fire scenario 2-2_RAMP_Q',
      TMP_FRONT=300.0/
&RAMP ID='Fire scenario 2-2_RAMP_Q', T=0.0, F=0.0/
&RAMP ID='Fire scenario 2-2_RAMP_Q', T=144.58, F=0.0/
&RAMP ID='Fire scenario 2-2_RAMP_Q', T=148.15, F=0.05/
&RAMP ID='Fire scenario 2-2_RAMP_Q', T=151.64, F=0.1/
&RAMP ID='Fire scenario 2-2_RAMP_Q', T=155.05, F=0.15/
&RAMP ID='Fire scenario 2-2_RAMP_Q', T=158.38, F=0.2/
&RAMP ID='Fire scenario 2-2_RAMP_Q', T=161.65, F=0.25/
&RAMP ID='Fire scenario 2-2_RAMP_Q', T=164.85, F=0.3/
&RAMP ID='Fire scenario 2-2_RAMP_Q', T=167.99, F=0.35/
&RAMP ID='Fire scenario 2-2_RAMP_Q', T=171.07, F=0.4/
&RAMP ID='Fire scenario 2-2_RAMP_Q', T=174.1, F=0.45/
&RAMP ID='Fire scenario 2-2_RAMP_Q', T=177.08, F=0.5/
&RAMP ID='Fire scenario 2-2_RAMP_Q', T=180.01, F=0.55/
&RAMP ID='Fire scenario 2-2_RAMP_Q', T=182.89, F=0.6/
&RAMP ID='Fire scenario 2-2_RAMP_Q', T=185.72, F=0.65/
&RAMP ID='Fire scenario 2-2_RAMP_Q', T=188.51, F=0.7/
&RAMP ID='Fire scenario 2-2_RAMP_Q', T=191.27, F=0.75/
&RAMP ID='Fire scenario 2-2_RAMP_Q', T=193.98, F=0.8/
&RAMP ID='Fire scenario 2-2_RAMP_Q', T=196.66, F=0.85/
&RAMP ID='Fire scenario 2-2_RAMP_Q', T=199.29, F=0.9/
&RAMP ID='Fire scenario 2-2_RAMP_Q', T=201.9, F=0.95/
&RAMP ID='Fire scenario 2-2_RAMP_Q', T=204.47, F=1.0/
&RAMP ID='Fire scenario 2-2_RAMP_Q', T=1200.0, F=1.0/
&SURF ID='Fire scenario 2-3',
      FYI='FS2 (08MW) Medium 500 kW/m2 ramp3',
      COLOR='RED',
      TEXTURE_MAP='psm_fire3.jpg',
      HRRPUA=500.0,
      RAMP_Q='Fire scenario 2-3_RAMP_Q',
      TMP_FRONT=300.0/
&RAMP ID='Fire scenario 2-3_RAMP_Q', T=0.0, F=0.0/
&RAMP ID='Fire scenario 2-3_RAMP_Q', T=204.47, F=0.0/
&RAMP ID='Fire scenario 2-3_RAMP_Q', T=207.01, F=0.05/
&RAMP ID='Fire scenario 2-3_RAMP_Q', T=209.52, F=0.1/
&RAMP ID='Fire scenario 2-3_RAMP_Q', T=212.0, F=0.15/
&RAMP ID='Fire scenario 2-3_RAMP_Q', T=214.45, F=0.2/
&RAMP ID='Fire scenario 2-3_RAMP_Q', T=216.88, F=0.25/
&RAMP ID='Fire scenario 2-3_RAMP_Q', T=219.27, F=0.3/
&RAMP ID='Fire scenario 2-3_RAMP_Q', T=221.64, F=0.35/
&RAMP ID='Fire scenario 2-3_RAMP_Q', T=223.99, F=0.4/
&RAMP ID='Fire scenario 2-3_RAMP_Q', T=226.31, F=0.45/
&RAMP ID='Fire scenario 2-3_RAMP_Q', T=228.61, F=0.5/
&RAMP ID='Fire scenario 2-3_RAMP_Q', T=230.88, F=0.55/
&RAMP ID='Fire scenario 2-3_RAMP_Q', T=233.13, F=0.6/
&RAMP ID='Fire scenario 2-3_RAMP_Q', T=235.37, F=0.65/
&RAMP ID='Fire scenario 2-3_RAMP_Q', T=237.58, F=0.7/
&RAMP ID='Fire scenario 2-3_RAMP_Q', T=239.76, F=0.75/
&RAMP ID='Fire scenario 2-3_RAMP_Q', T=241.93, F=0.8/
&RAMP ID='Fire scenario 2-3_RAMP_Q', T=244.09, F=0.85/
&RAMP ID='Fire scenario 2-3_RAMP_Q', T=246.22, F=0.9/
&RAMP ID='Fire scenario 2-3_RAMP_Q', T=248.33, F=0.95/
&RAMP ID='Fire scenario 2-3_RAMP_Q', T=250.43, F=1.0/
&RAMP ID='Fire scenario 2-3_RAMP_Q', T=1200.0, F=1.0/
&SURF ID='Fire scenario 2-4',
      FYI='FS2 (08MW) Medium 500 kW/m2 ramp4',
      COLOR='RED',
      TEXTURE_MAP='psm_fire4.jpg',
      HRRPUA=500.0,
      RAMP_Q='Fire scenario 2-4_RAMP_Q',
      TMP_FRONT=300.0/
&RAMP ID='Fire scenario 2-4_RAMP_Q', T=0.0, F=0.0/
&RAMP ID='Fire scenario 2-4_RAMP_Q', T=250.43, F=0.0/
&RAMP ID='Fire scenario 2-4_RAMP_Q', T=252.5, F=0.05/
&RAMP ID='Fire scenario 2-4_RAMP_Q', T=254.57, F=0.1/
&RAMP ID='Fire scenario 2-4_RAMP_Q', T=256.61, F=0.15/
&RAMP ID='Fire scenario 2-4_RAMP_Q', T=258.64, F=0.2/
&RAMP ID='Fire scenario 2-4_RAMP_Q', T=260.65, F=0.25/
&RAMP ID='Fire scenario 2-4_RAMP_Q', T=262.65, F=0.3/
&RAMP ID='Fire scenario 2-4_RAMP_Q', T=264.63, F=0.35/
&RAMP ID='Fire scenario 2-4_RAMP_Q', T=266.6, F=0.4/
&RAMP ID='Fire scenario 2-4_RAMP_Q', T=268.55, F=0.45/
&RAMP ID='Fire scenario 2-4_RAMP_Q', T=270.49, F=0.5/
&RAMP ID='Fire scenario 2-4_RAMP_Q', T=272.42, F=0.55/
&RAMP ID='Fire scenario 2-4_RAMP_Q', T=273.0, F=0.563/
&RAMP ID='Fire scenario 2-4_RAMP_Q', T=276.23, F=0.563/
&RAMP ID='Fire scenario 2-4_RAMP_Q', T=278.11, F=0.563/
&RAMP ID='Fire scenario 2-4_RAMP_Q', T=279.99, F=0.563/
&RAMP ID='Fire scenario 2-4_RAMP_Q', T=281.85, F=0.563/
&RAMP ID='Fire scenario 2-4_RAMP_Q', T=283.69, F=0.563/
&RAMP ID='Fire scenario 2-4_RAMP_Q', T=285.53, F=0.563/
&RAMP ID='Fire scenario 2-4_RAMP_Q', T=287.35, F=0.563/
&RAMP ID='Fire scenario 2-4_RAMP_Q', T=289.17, F=0.563/
&RAMP ID='Fire scenario 2-4_RAMP_Q', T=1200.0, F=0.563/

&OBST ID='Steps', XB=40.2,40.6,27.8,32.4,44.4,44.6, SURF_ID='Stair'/ 
&OBST ID='Steps', XB=39.8,40.2,27.8,32.4,44.4,44.8, SURF_ID='Stair'/ 
&OBST ID='Steps', XB=39.4,39.8,28.0,32.4,44.4,45.0, SURF_ID='Stair'/ 
&OBST ID='Steps', XB=39.0,39.4,28.0,32.4,44.4,45.2, SURF_ID='Stair'/ 
&OBST ID='Steps', XB=38.6,39.0,28.0,32.4,44.4,45.4, SURF_ID='Stair'/ 
&OBST ID='Steps', XB=38.2,38.6,28.2,32.4,44.4,45.6, SURF_ID='Stair'/ 
&OBST ID='Steps', XB=37.8,38.2,28.2,32.4,44.4,45.8, SURF_ID='Stair'/ 
&OBST ID='Steps', XB=37.4,37.8,28.4,32.4,44.4,46.0, SURF_ID='Stair'/ 
&OBST ID='Steps', XB=37.0,37.4,28.4,32.4,44.4,46.2, SURF_ID='Stair'/ 
&OBST ID='Steps', XB=36.6,37.0,28.6,32.4,44.4,46.4, SURF_ID='Stair'/ 
&OBST ID='Steps', XB=36.2,36.6,28.6,32.4,44.4,46.6, SURF_ID='Stair'/ 
&OBST ID='Steps', XB=35.2,36.2,28.8,32.4,44.4,46.8, SURF_ID='Stair'/ 
&OBST ID='Steps', XB=34.8,35.2,28.8,32.4,44.4,47.0, SURF_ID='Stair'/ 
&OBST ID='Steps', XB=34.4,34.8,29.0,32.4,44.4,47.2, SURF_ID='Stair'/ 
&OBST ID='Steps', XB=34.0,34.4,29.0,32.4,44.4,47.4, SURF_ID='Stair'/ 
&OBST ID='Steps', XB=33.6,34.0,29.0,32.4,44.4,47.6, SURF_ID='Stair'/ 
&OBST ID='Steps', XB=33.2,33.6,28.6,32.4,44.4,48.0, SURF_ID='Stair'/ 
&OBST ID='Steps', XB=32.8,33.2,28.6,32.4,44.4,48.2, SURF_ID='Stair'/ 
&OBST ID='Steps', XB=32.6,32.8,29.2,32.4,44.4,48.2, SURF_ID='Stair'/ 
&OBST ID='Internal wall 00.1', XB=33.4,33.8,24.4,29.2,44.4,48.2, SURF_ID='Wall'/ 
&OBST ID='Wall between cafe and reception', XB=47.2,47.4,32.6,34.8,44.4,48.2, SURF_ID='Wall'/ 
&OBST ID='Obstruction', XB=27.0,27.6,32.2,32.6,44.4,48.2, SURF_ID='Wall'/ 
&OBST ID='Obstruction', XB=30.0,30.2,36.4,37.0,44.4,48.2, SURF_ID='Wall'/ 
&OBST ID='Obstruction', XB=36.0,36.2,35.6,37.0,44.4,48.2, SURF_ID='Wall'/ 
&OBST ID='Wall atrium 01', XB=46.6,48.4,32.4,32.6,48.2,52.0, SURF_ID='Wall'/ 
&OBST ID='Obstruction', XB=38.8,38.8,24.6,25.6,48.2,49.2, SURF_ID='Screen'/ 
&OBST ID='Obstruction', XB=38.8,39.2,25.8,27.2,48.2,48.4, SURF_ID='Stair'/ 
&OBST ID='Obstruction', XB=39.2,39.6,25.8,27.2,48.2,48.6, SURF_ID='Stair'/ 
&OBST ID='Obstruction', XB=39.6,40.0,25.8,27.2,48.4,48.8, SURF_ID='Stair'/ 
&OBST ID='Obstruction', XB=40.0,40.4,25.8,27.2,48.6,49.0, SURF_ID='Stair'/ 
&OBST ID='Obstruction', XB=40.4,40.8,25.8,27.2,48.8,49.2, SURF_ID='Stair'/ 
&OBST ID='Obstruction', XB=40.8,41.2,25.8,27.2,49.0,49.4, SURF_ID='Stair'/ 
&OBST ID='Obstruction', XB=41.2,41.6,25.8,27.2,49.2,49.6, SURF_ID='Stair'/ 
&OBST ID='Obstruction', XB=41.6,42.0,25.8,27.2,49.4,49.8, SURF_ID='Stair'/ 
&OBST ID='Obstruction', XB=42.0,42.4,25.8,27.2,49.6,50.0, SURF_ID='Stair'/ 
&OBST ID='Obstruction', XB=42.4,42.8,25.8,27.2,49.8,50.2, SURF_ID='Stair'/ 
&OBST ID='Obstruction', XB=42.8,43.2,25.8,27.2,50.0,50.4, SURF_ID='Stair'/ 
&OBST ID='Obstruction', XB=43.2,43.6,25.8,27.2,50.2,50.6, SURF_ID='Stair'/ 
&OBST ID='Obstruction', XB=43.6,44.0,25.8,27.2,50.4,50.8, SURF_ID='Stair'/ 
&OBST ID='Obstruction', XB=44.0,44.4,25.8,27.2,50.6,51.0, SURF_ID='Stair'/ 
&OBST ID='Obstruction', XB=44.4,44.8,25.8,27.2,50.8,51.2, SURF_ID='Stair'/ 
&OBST ID='Obstruction', XB=44.8,45.2,25.8,27.2,51.0,51.4, SURF_ID='Stair'/ 
&OBST ID='Obstruction', XB=45.2,45.6,25.8,27.2,51.2,51.6, SURF_ID='Stair'/ 
&OBST ID='Obstruction', XB=45.6,46.0,25.8,27.2,51.4,51.8, SURF_ID='Stair'/ 
&OBST ID='Obstruction', XB=46.0,46.4,25.8,27.2,51.6,52.0, SURF_ID='Stair'/ 
&OBST ID='Obstruction', XB=38.8,39.2,27.2,27.4,48.2,49.4, SURF_ID='Stair'/ 
&OBST ID='Obstruction', XB=38.8,39.2,25.6,25.8,48.2,49.4, SURF_ID='Stair'/ 
&OBST ID='Obstruction', XB=39.2,39.6,27.2,27.4,48.4,49.6, SURF_ID='Stair'/ 
&OBST ID='Obstruction', XB=39.2,39.6,25.6,25.8,48.4,49.6, SURF_ID='Stair'/ 
&OBST ID='Obstruction', XB=39.6,40.0,27.2,27.4,48.6,49.8, SURF_ID='Stair'/ 
&OBST ID='Obstruction', XB=39.6,40.0,25.6,25.8,48.6,49.8, SURF_ID='Stair'/ 
&OBST ID='Obstruction', XB=40.0,40.4,27.2,27.4,48.8,50.0, SURF_ID='Stair'/ 
&OBST ID='Obstruction', XB=40.0,40.4,25.6,25.8,48.8,50.0, SURF_ID='Stair'/ 
&OBST ID='Obstruction', XB=40.4,40.8,27.2,27.4,49.0,50.2, SURF_ID='Stair'/ 
&OBST ID='Obstruction', XB=40.4,40.8,25.6,25.8,49.0,50.2, SURF_ID='Stair'/ 
&OBST ID='Obstruction', XB=40.8,41.2,27.2,27.4,49.2,50.4, SURF_ID='Stair'/ 
&OBST ID='Obstruction', XB=40.8,41.2,25.6,25.8,49.2,50.4, SURF_ID='Stair'/ 
&OBST ID='Obstruction', XB=41.2,41.6,27.2,27.4,49.4,50.6, SURF_ID='Stair'/ 
&OBST ID='Obstruction', XB=41.2,41.6,25.6,25.8,49.4,50.6, SURF_ID='Stair'/ 
&OBST ID='Obstruction', XB=41.6,42.0,27.2,27.4,49.6,50.8, SURF_ID='Stair'/ 
&OBST ID='Obstruction', XB=41.6,42.0,25.6,25.8,49.6,50.8, SURF_ID='Stair'/ 
&OBST ID='Obstruction', XB=42.0,42.4,27.2,27.4,49.8,51.0, SURF_ID='Stair'/ 
&OBST ID='Obstruction', XB=42.0,42.4,25.6,25.8,49.8,51.0, SURF_ID='Stair'/ 
&OBST ID='Obstruction', XB=42.4,42.8,27.2,27.4,50.0,51.2, SURF_ID='Stair'/ 
&OBST ID='Obstruction', XB=42.4,42.8,25.6,25.8,50.0,51.2, SURF_ID='Stair'/ 
&OBST ID='Obstruction', XB=42.8,43.2,27.2,27.4,50.2,51.4, SURF_ID='Stair'/ 
&OBST ID='Obstruction', XB=42.8,43.2,25.6,25.8,50.2,51.4, SURF_ID='Stair'/ 
&OBST ID='Obstruction', XB=43.2,43.6,27.2,27.4,50.4,51.6, SURF_ID='Stair'/ 
&OBST ID='Obstruction', XB=43.2,43.6,25.6,25.8,50.4,51.6, SURF_ID='Stair'/ 
&OBST ID='Obstruction', XB=43.6,44.0,27.2,27.4,50.6,51.8, SURF_ID='Stair'/ 
&OBST ID='Obstruction', XB=43.6,44.0,25.6,25.8,50.6,51.8, SURF_ID='Stair'/ 
&OBST ID='Obstruction', XB=44.0,44.4,27.2,27.4,50.8,52.0, SURF_ID='Stair'/ 
&OBST ID='Obstruction', XB=44.0,44.4,25.6,25.8,50.8,52.0, SURF_ID='Stair'/ 
&OBST ID='Obstruction', XB=44.4,44.8,27.2,27.4,51.0,52.2, SURF_ID='Stair'/ 
&OBST ID='Obstruction', XB=44.4,44.8,25.6,25.8,51.0,52.2, SURF_ID='Stair'/ 
&OBST ID='Obstruction', XB=44.8,45.2,27.2,27.4,51.2,52.4, SURF_ID='Stair'/ 
&OBST ID='Obstruction', XB=44.8,45.2,25.6,25.8,51.2,52.4, SURF_ID='Stair'/ 
&OBST ID='Obstruction', XB=45.2,45.6,27.2,27.4,51.4,52.6, SURF_ID='Stair'/ 
&OBST ID='Obstruction', XB=45.2,45.6,25.6,25.8,51.4,52.6, SURF_ID='Stair'/ 
&OBST ID='Obstruction', XB=45.6,46.0,27.2,27.4,51.6,52.8, SURF_ID='Stair'/ 
&OBST ID='Obstruction', XB=45.6,46.0,25.6,25.8,51.6,52.8, SURF_ID='Stair'/ 
&OBST ID='Obstruction', XB=46.0,46.4,27.2,27.4,51.8,53.0, SURF_ID='Stair'/ 
&OBST ID='Obstruction', XB=46.0,46.4,25.6,25.8,51.8,53.0, SURF_ID='Stair'/ 
&OBST ID='Screen 01', XB=32.8,46.6,32.4,32.4,48.2,52.0, SURF_ID='Screen'/ 
&OBST ID='Obstruction', XB=27.0,29.6,35.2,35.4,48.2,52.0, SURF_ID='Wall'/ 
&OBST ID='Obstruction', XB=30.0,30.2,35.4,37.0,48.2,52.0, SURF_ID='Wall'/ 
&OBST ID='Obstruction', XB=48.4,48.6,35.4,37.0,48.2,52.0, SURF_ID='Wall'/ 
&OBST ID='Obstruction', XB=36.0,36.2,35.4,37.0,48.2,52.0, SURF_ID='Wall'/ 
&OBST ID='Obstruction', XB=46.0,46.0,24.8,25.6,52.0,53.0, SURF_ID='Screen'/ 
&OBST ID='Obstruction', XB=45.8,45.8,29.8,30.6,52.0,53.0, SURF_ID='Screen'/ 
&OBST ID='Screen 02', XB=38.6,45.8,30.6,30.6,52.0,53.0, SURF_ID='Screen'/ 
&OBST ID='Glazing 02', XB=38.6,45.6,24.4,24.6,52.0,55.8, SURF_ID='Glazing'/ 
&OBST ID='Obstruction', XB=31.4,31.6,25.0,32.8,52.0,55.8, SURF_ID='Wall'/ 
&OBST ID='Obstruction', XB=27.0,29.6,33.4,33.6,52.0,55.8, SURF_ID='Wall'/ 
&OBST ID='Obstruction', XB=30.0,30.2,35.4,37.0,52.0,55.8, SURF_ID='Wall'/ 
&OBST ID='Obstruction', XB=48.0,48.2,35.4,37.0,52.0,55.8, SURF_ID='Wall'/ 
&OBST ID='Obstruction', XB=35.8,36.0,35.4,37.0,52.0,55.8, SURF_ID='Wall'/ 
&OBST ID='Obstruction', XB=38.4,38.4,29.6,30.6,55.8,56.8, SURF_ID='Screen'/ 
&OBST ID='Obstruction', XB=38.2,38.2,27.8,28.0,55.8,56.8, SURF_ID='Screen'/ 
&OBST ID='Obstruction', XB=38.6,38.6,24.8,25.6,55.8,56.8, SURF_ID='Screen'/ 
&OBST ID='Obstruction', XB=45.6,45.6,24.8,25.6,59.0,59.4, SURF_ID='Screen'/ 
&OBST ID='Obstruction', XB=38.6,39.0,25.8,27.2,55.8,56.0, SURF_ID='Stair'/ 
&OBST ID='Obstruction', XB=39.0,39.4,25.8,27.2,55.8,56.2, SURF_ID='Stair'/ 
&OBST ID='Obstruction', XB=39.4,39.8,25.8,27.2,56.0,56.4, SURF_ID='Stair'/ 
&OBST ID='Obstruction', XB=39.8,40.2,25.8,27.2,56.2,56.6, SURF_ID='Stair'/ 
&OBST ID='Obstruction', XB=40.2,40.6,25.8,27.2,56.4,56.8, SURF_ID='Stair'/ 
&OBST ID='Obstruction', XB=40.6,41.0,25.8,27.2,56.6,57.0, SURF_ID='Stair'/ 
&OBST ID='Obstruction', XB=41.0,41.4,25.8,27.2,56.8,57.2, SURF_ID='Stair'/ 
&OBST ID='Obstruction', XB=41.4,41.8,25.8,27.2,57.0,57.4, SURF_ID='Stair'/ 
&OBST ID='Obstruction', XB=41.8,42.2,25.8,27.2,57.2,57.6, SURF_ID='Stair'/ 
&OBST ID='Obstruction', XB=42.2,42.6,25.8,27.2,57.4,57.8, SURF_ID='Stair'/ 
&OBST ID='Obstruction', XB=42.6,43.0,25.8,27.2,57.6,58.0, SURF_ID='Stair'/ 
&OBST ID='Obstruction', XB=43.0,43.4,25.8,27.2,57.8,58.2, SURF_ID='Stair'/ 
&OBST ID='Obstruction', XB=43.4,43.8,25.8,27.2,58.0,58.4, SURF_ID='Stair'/ 
&OBST ID='Obstruction', XB=43.8,44.2,25.8,27.2,58.2,58.6, SURF_ID='Stair'/ 
&OBST ID='Obstruction', XB=44.2,44.6,25.8,27.2,58.4,58.8, SURF_ID='Stair'/ 
&OBST ID='Obstruction', XB=44.6,45.0,25.8,27.2,58.6,59.0, SURF_ID='Stair'/ 
&OBST ID='Obstruction', XB=45.0,45.4,25.8,27.2,58.8,59.2, SURF_ID='Stair'/ 
&OBST ID='Obstruction', XB=45.4,45.8,25.8,27.2,59.0,59.4, SURF_ID='Stair'/ 
&OBST ID='Obstruction', XB=45.8,46.2,25.8,27.2,59.2,59.6, SURF_ID='Stair'/ 
&OBST ID='Obstruction', XB=38.6,39.0,27.2,27.4,55.8,57.0, SURF_ID='Stair'/ 
&OBST ID='Obstruction', XB=38.6,39.0,25.6,25.8,55.8,57.0, SURF_ID='Stair'/ 
&OBST ID='Obstruction', XB=39.0,39.4,27.2,27.4,56.0,57.2, SURF_ID='Stair'/ 
&OBST ID='Obstruction', XB=39.0,39.4,25.6,25.8,56.0,57.2, SURF_ID='Stair'/ 
&OBST ID='Obstruction', XB=39.4,39.8,27.2,27.4,56.2,57.4, SURF_ID='Stair'/ 
&OBST ID='Obstruction', XB=39.4,39.8,25.6,25.8,56.2,57.4, SURF_ID='Stair'/ 
&OBST ID='Obstruction', XB=39.8,40.2,27.2,27.4,56.4,57.6, SURF_ID='Stair'/ 
&OBST ID='Obstruction', XB=39.8,40.2,25.6,25.8,56.4,57.6, SURF_ID='Stair'/ 
&OBST ID='Obstruction', XB=40.2,40.6,27.2,27.4,56.6,57.8, SURF_ID='Stair'/ 
&OBST ID='Obstruction', XB=40.2,40.6,25.6,25.8,56.6,57.8, SURF_ID='Stair'/ 
&OBST ID='Obstruction', XB=40.6,41.0,27.2,27.4,56.8,58.0, SURF_ID='Stair'/ 
&OBST ID='Obstruction', XB=40.6,41.0,25.6,25.8,56.8,58.0, SURF_ID='Stair'/ 
&OBST ID='Obstruction', XB=41.0,41.4,27.2,27.4,57.0,58.2, SURF_ID='Stair'/ 
&OBST ID='Obstruction', XB=41.0,41.4,25.6,25.8,57.0,58.2, SURF_ID='Stair'/ 
&OBST ID='Obstruction', XB=41.4,41.8,27.2,27.4,57.2,58.4, SURF_ID='Stair'/ 
&OBST ID='Obstruction', XB=41.4,41.8,25.6,25.8,57.2,58.4, SURF_ID='Stair'/ 
&OBST ID='Obstruction', XB=41.8,42.2,27.2,27.4,57.4,58.6, SURF_ID='Stair'/ 
&OBST ID='Obstruction', XB=41.8,42.2,25.6,25.8,57.4,58.6, SURF_ID='Stair'/ 
&OBST ID='Obstruction', XB=42.2,42.6,27.2,27.4,57.6,58.8, SURF_ID='Stair'/ 
&OBST ID='Obstruction', XB=42.2,42.6,25.6,25.8,57.6,58.8, SURF_ID='Stair'/ 
&OBST ID='Obstruction', XB=42.6,43.0,27.2,27.4,57.8,59.0, SURF_ID='Stair'/ 
&OBST ID='Obstruction', XB=42.6,43.0,25.6,25.8,57.8,59.0, SURF_ID='Stair'/ 
&OBST ID='Obstruction', XB=43.0,43.4,27.2,27.4,58.0,59.2, SURF_ID='Stair'/ 
&OBST ID='Obstruction', XB=43.0,43.4,25.6,25.8,58.0,59.2, SURF_ID='Stair'/ 
&OBST ID='Obstruction', XB=43.4,43.8,27.2,27.4,58.2,59.4, SURF_ID='Stair'/ 
&OBST ID='Obstruction', XB=43.4,43.8,25.6,25.8,58.2,59.4, SURF_ID='Stair'/ 
&OBST ID='Obstruction', XB=43.8,44.2,27.2,27.4,58.4,59.6, SURF_ID='Stair'/ 
&OBST ID='Obstruction', XB=43.8,44.2,25.6,25.8,58.4,59.6, SURF_ID='Stair'/ 
&OBST ID='Obstruction', XB=44.2,44.6,27.2,27.4,58.6,59.8, SURF_ID='Stair'/ 
&OBST ID='Obstruction', XB=44.2,44.6,25.6,25.8,58.6,59.8, SURF_ID='Stair'/ 
&OBST ID='Obstruction', XB=44.6,45.0,27.2,27.4,58.8,60.0, SURF_ID='Stair'/ 
&OBST ID='Obstruction', XB=44.6,45.0,25.6,25.8,58.8,60.0, SURF_ID='Stair'/ 
&OBST ID='Obstruction', XB=45.0,45.4,27.2,27.4,59.0,60.2, SURF_ID='Stair'/ 
&OBST ID='Obstruction', XB=45.0,45.4,25.6,25.8,59.0,60.2, SURF_ID='Stair'/ 
&OBST ID='Obstruction', XB=45.4,45.8,27.2,27.4,59.2,60.4, SURF_ID='Stair'/ 
&OBST ID='Obstruction', XB=45.4,45.8,25.6,25.8,59.2,60.4, SURF_ID='Stair'/ 
&OBST ID='Obstruction', XB=45.8,46.2,27.2,27.4,59.4,60.6, SURF_ID='Stair'/ 
&OBST ID='Obstruction', XB=45.8,46.2,25.6,25.8,59.4,60.6, SURF_ID='Stair'/ 
&OBST ID='Glazing 03', XB=39.0,45.6,24.4,24.6,55.8,59.6, SURF_ID='Glazing'/ 
&OBST ID='Obstruction', XB=27.0,29.4,32.2,32.4,55.8,59.6, SURF_ID='Wall'/ 
&OBST ID='Obstruction', XB=29.8,30.0,35.4,37.0,55.8,59.6, SURF_ID='Wall'/ 
&OBST ID='Obstruction', XB=47.8,48.0,35.4,37.0,55.8,59.6, SURF_ID='Wall'/ 
&OBST ID='Obstruction', XB=35.6,35.8,35.4,37.0,55.8,59.6, SURF_ID='Wall'/ 
&OBST ID='Obstruction', XB=45.8,45.8,24.6,25.6,59.6,60.6, SURF_ID='Screen'/ 
&OBST ID='Obstruction', XB=45.8,45.8,29.8,30.6,59.6,60.6, SURF_ID='Screen'/ 
&OBST ID='Obstruction', XB=45.8,45.8,27.2,28.0,59.6,60.6, SURF_ID='Screen'/ 
&OBST ID='Glazing 04', XB=38.6,45.4,24.4,24.6,59.6,63.4, SURF_ID='Glazing'/ 
&OBST ID='Obstruction', XB=30.6,30.8,26.0,30.6,59.6,63.4, SURF_ID='Wall'/ 
&OBST ID='Obstruction', XB=27.0,33.4,30.6,31.0,59.6,63.4, SURF_ID='Wall'/ 
&OBST ID='Obstruction', XB=33.4,33.6,35.0,39.0,59.6,63.4, SURF_ID='Wall'/ 
&OBST ID='Obstruction', XB=47.8,48.0,35.4,39.0,59.6,63.4, SURF_ID='Wall'/ 
&OBST ID='Obstruction', XB=35.6,35.8,35.4,39.0,59.6,63.4, SURF_ID='Wall'/ 
&OBST ID='Obstruction', XB=45.6,45.6,24.8,25.6,66.6,67.0, SURF_ID='Screen'/ 
&OBST ID='Obstruction', XB=38.4,38.4,29.6,30.6,63.4,64.4, SURF_ID='Screen'/ 
&OBST ID='Obstruction', XB=38.2,38.2,27.8,28.0,63.4,64.4, SURF_ID='Screen'/ 
&OBST ID='Obstruction', XB=38.6,38.6,24.8,25.6,63.4,64.4, SURF_ID='Screen'/ 
&OBST ID='Obstruction', XB=38.6,39.0,25.6,27.0,63.4,63.6, SURF_ID='Stair'/ 
&OBST ID='Obstruction', XB=39.0,39.4,25.6,27.0,63.4,63.8, SURF_ID='Stair'/ 
&OBST ID='Obstruction', XB=39.4,39.8,25.6,27.0,63.6,64.0, SURF_ID='Stair'/ 
&OBST ID='Obstruction', XB=39.8,40.2,25.6,27.0,63.8,64.2, SURF_ID='Stair'/ 
&OBST ID='Obstruction', XB=40.2,40.6,25.6,27.0,64.0,64.4, SURF_ID='Stair'/ 
&OBST ID='Obstruction', XB=40.6,41.0,25.6,27.0,64.2,64.6, SURF_ID='Stair'/ 
&OBST ID='Obstruction', XB=41.0,41.4,25.6,27.0,64.4,64.8, SURF_ID='Stair'/ 
&OBST ID='Obstruction', XB=41.4,41.8,25.6,27.0,64.6,65.0, SURF_ID='Stair'/ 
&OBST ID='Obstruction', XB=41.8,42.2,25.6,27.0,64.8,65.2, SURF_ID='Stair'/ 
&OBST ID='Obstruction', XB=42.2,42.6,25.6,27.0,65.0,65.4, SURF_ID='Stair'/ 
&OBST ID='Obstruction', XB=42.6,43.0,25.6,27.0,65.2,65.6, SURF_ID='Stair'/ 
&OBST ID='Obstruction', XB=43.0,43.4,25.6,27.0,65.4,65.8, SURF_ID='Stair'/ 
&OBST ID='Obstruction', XB=43.4,43.8,25.6,27.0,65.6,66.0, SURF_ID='Stair'/ 
&OBST ID='Obstruction', XB=43.8,44.2,25.6,27.0,65.8,66.2, SURF_ID='Stair'/ 
&OBST ID='Obstruction', XB=44.2,44.6,25.6,27.0,66.0,66.4, SURF_ID='Stair'/ 
&OBST ID='Obstruction', XB=44.6,45.0,25.6,27.0,66.2,66.6, SURF_ID='Stair'/ 
&OBST ID='Obstruction', XB=45.0,45.4,25.6,27.0,66.4,66.8, SURF_ID='Stair'/ 
&OBST ID='Obstruction', XB=45.4,45.8,25.6,27.0,66.6,67.0, SURF_ID='Stair'/ 
&OBST ID='Obstruction', XB=45.8,46.2,25.6,27.0,66.8,67.2, SURF_ID='Stair'/ 
&OBST ID='Obstruction', XB=38.6,39.0,27.0,27.2,63.4,64.6, SURF_ID='Stair'/ 
&OBST ID='Obstruction', XB=38.6,39.0,25.4,25.6,63.4,64.6, SURF_ID='Stair'/ 
&OBST ID='Obstruction', XB=39.0,39.4,27.0,27.2,63.6,64.8, SURF_ID='Stair'/ 
&OBST ID='Obstruction', XB=39.0,39.4,25.4,25.6,63.6,64.8, SURF_ID='Stair'/ 
&OBST ID='Obstruction', XB=39.4,39.8,27.0,27.2,63.8,65.0, SURF_ID='Stair'/ 